<polygons>
<poly id="1" color="255,0,90" layer="100" type="route" shape="1017.0,1785.13 1064.52,1790.46" lineWidth="0.06">
    <param key="count" value="6"/>
</poly>
<poly id="2" color="255,54,0" layer="100" type="route" shape="898.96,1803.29 896.64,1800.35 894.07,1795.7 892.28,1790.68 890.99,1783.95 891.97,1774.99 893.55,1769.87 893.55,1769.87 896.16,1763.8 899.9,1758.82 904.77,1754.93 910.78,1752.14 910.78,1752.14 916.05,1750.33 921.2,1749.47 923.51,1749.45 923.51,1749.45 925.25,1749.44 926.45,1749.47 927.64,1749.6 929.37,1749.86 929.37,1749.86 931.9,1750.25 937.0,1751.93 941.77,1754.42 946.06,1757.63 949.78,1761.51 951.28,1763.69 951.28,1763.69 952.22,1765.08 952.82,1766.07 953.33,1767.1 954.04,1768.62 954.04,1768.62 954.39,1769.41 954.39,1769.41 954.86,1770.44 955.16,1771.15 955.4,1771.88 955.69,1772.97 955.69,1772.97 956.74,1777.17 957.12,1783.13 956.41,1789.06 955.25,1792.76" lineWidth="0.04">
    <param key="count" value="4"/>
</poly>
<poly id="3" color="255,198,0" layer="100" type="route" shape="1085.98,1749.86 1083.66,1750.79 1067.68,1758.92 1067.68,1758.92 1060.19,1762.41 1060.19,1762.41 1020.3,1780.44 1020.3,1780.44 1018.87,1780.2 1018.18,1779.64 1018.18,1779.64 1018.22,1778.75 1018.98,1777.52 1018.98,1777.52 1058.87,1759.49" lineWidth="0.03">
    <param key="count" value="3"/>
</poly>
<poly id="5" color="168,255,0" layer="100" type="route" shape="967.3226021311292,1768.8100101623866 984.2145662041552,1779.597627736739 986.7736458664473,1780.506644450758 990.7375772583316,1781.6266742052214 993.7328126989853,1781.9914785217113 996.5770850688313,1782.0608510185368 1000.2519638848902,1782.345816189105 1002.7425267245872,1783.19972344843 1001.8370869685842,1785.3776731317887 999.3687507027089,1786.8609925779483 995.4028643523775,1788.5839611980152 963.7004318960378,1801.093083616968 960.1730601495467,1802.880667672778 958.19911655906,1804.678531788057 956.3270174739163,1806.986463464451 953.2886045173495,1810.0860525208143 949.6398033141772,1813.302481327079 946.6720019524795,1814.2156509768322 944.2289603390665,1812.7736605611103 942.3812780250142,1811.6080665779464 940.326633710111,1811.8746998096515 938.9694587613104,1812.6927230664628 933.6155846932902,1814.7303139739035 927.2143443527676,1815.4245473760654 920.6355383431234,1816.0915231005454 915.7602471689812,1815.9447401404639 911.2389752633451,1814.310289733262 905.7371655032248,1810.6901398167515 902.2359620964552,1808.0974119295229 898.1745125481323,1803.908878044315 895.8043304164361,1800.9052851705276 893.1554179815731,1796.1125058623127 891.3123216510129,1790.9435988347084 889.9795890762031,1783.9906606731033 890.9863093796234,1774.7863607561178 892.6102189835775,1769.524071406595 895.2885671168921,1763.2951161693466 899.1766557110977,1758.1179286829442 904.2398548259495,1754.07360741872 910.4060458314334,1751.2110994477882 915.8035496887608,1749.3573078003947 921.1127813432676,1748.4707176600305 923.5013423158307,1748.45003747845" lineWidth="0.02">
    <param key="count" value="2"/>
    <param key="spread" value="1"/>
</poly>
<poly id="6" color="24,255,0" layer="100" type="route" shape="1018.5681256276381,1776.6087593614245 1058.735415351371,1758.4534263526778 1061.9503687396198,1761.4825765391424 1060.8772555991359,1763.196770257058 1020.7388864697472,1781.3390313601635 1017.3612418195551,1783.1137260068745 1016.6374262226366,1783.842638896729 1016.621361759689,1783.8195898846739 1189.7941836082778,1801.380430798706 1101.0084989450602,1793.546399799021 1064.6314643466035,1789.4662315664923" lineWidth="0.08">
    <param key="count" value="8"/>
    <param key="spread" value="1"/>
</poly>
<poly id="7" color="0,255,120" layer="100" type="route" shape="954.7198574998547,1773.2125356250363 955.7478104347214,1777.3243473645034 956.1161933057778,1783.1021418684404 955.4280981970425,1788.8491897484405 954.2947094989806,1792.464308871569 953.0956414135928,1796.3885316964745 952.0853067190068,1798.9285320034246 950.5597076516411,1801.0736167526902 947.6929293753662,1803.8237803194215 943.4986896089769,1807.521014795574 946.9279980475204,1812.044349023168 945.2710396609335,1811.0663394388898 942.8387219749858,1809.5319334220535 939.653366289889,1809.9453001903487 938.0905412386895,1810.8872769335371 933.1444153067098,1812.7696860260965 927.0056556472324,1813.4354526239347 920.5644616568767,1814.0884768994545 916.1397528310189,1813.9552598595362 912.141024736655,1812.5097102667382 906.8828344967751,1809.0498601832483 903.5240379035448,1806.562588070477 901.819716560323,1804.9459175391926 901.1431367794905,1804.29875427057 900.7171904698785,1803.863548258575 900.3224388238725,1803.4045347167078 899.7454874518678,1802.6711219556848 897.4756695835639,1799.7947148294722 894.984582018427,1795.2874941376874 893.247678348987,1790.4164011652917 892.000410923797,1783.9093393268968 892.9536906203766,1775.1936392438822 894.8007876385547,1769.2081096659886 891.7458958511469,1768.2696788554779 892.0629047571208,1767.2614865971345 892.4320690440568,1765.784829449391 892.5324130077062,1764.2350726774705 892.3761629824243,1762.1413223386921 892.3118182180476,1761.519322949718 891.5844862056225,1756.981180956699 890.0975979257051,1752.520516116947 885.9786966299212,1742.5521677721135 872.4979419010377,1721.8542405562107" lineWidth="0.06">
    <param key="count" value="6"/>
    <param key="spread" value="-1"/>
</poly>
<poly id="8" color="0,246,255" layer="100" type="route" shape="966.78,1769.65 982.88,1780.05 982.88,1780.05 983.16,1780.23 983.36,1780.34 983.57,1780.43 983.88,1780.54 983.88,1780.54 986.47,1781.46 986.47,1781.46 990.54,1782.61 993.66,1782.99 996.53,1783.06 999.82,1783.29 999.82,1783.29 1000.01,1783.32 1000.01,1783.32 1001.41,1783.8 1001.04,1784.69 998.91,1785.97 995.02,1787.66 995.02,1787.66 963.29,1800.18" lineWidth="0.02">
    <param key="count" value="2"/>
</poly>
<poly id="9" color="0,102,255" layer="100" type="route" shape="983.5452774552789,1781.4823167291604 986.1663541335528,1782.4133555492422 990.3424227416683,1783.5933257947784 993.5871873010146,1783.9885214782887 996.4829149311687,1784.059148981463 999.7069365489373,1784.2845365109727 999.9720743306952,1784.3264003712502 1004.613120582721,1783.948396604117 1009.9765898796587,1782.376345258463 1015.1782369306083,1780.3017583996213 1019.3888086319356,1778.432626331729 1059.2871579466814,1760.39885250007 1066.6679247513227,1756.9591744919287 1082.7531178520726,1748.7817858205976 1085.161390676354,1747.8184766908853" lineWidth="0.01">
    <param key="count" value="1"/>
    <param key="spread" value="-1"/>
</poly>
<poly id="10" color="42,0,255" layer="100" type="route" shape="905.1197690389592,1811.4772803922713 901.5919241929104,1808.8648238590456 897.3890250962645,1804.5277560886302 894.968660832872,1801.4605703410555 892.2408359631461,1796.5250117246253 890.3446433020258,1791.2071976694167 888.9691781524061,1784.0313213462068 890.0026187592468,1774.5827215122354 891.6389268549736,1769.280254771652" lineWidth="0.04">
    <param key="count" value="4"/>
    <param key="spread" value="2"/>
</poly>
<poly id="11" color="186,0,255" layer="100" type="route" shape="873.400155164611,1721.2928265399466 879.850297548779,1731.2722921154518 889.4673632088469,1738.85829850201 896.6742736868819,1744.0621710119879 899.8888376303861,1746.0427571836308 903.0448889455558,1747.219589877423 906.1031806633373,1747.5703616873477 908.9626605481769,1747.0504562537403 914.7165366213425,1745.0825507217723 920.7272211971198,1744.0694045372004 922.4593973920375,1744.0570758810088 922.5193845841528,1750.45570970664 925.2403751463421,1750.4400718298457 926.3830876486888,1750.4686396424045 927.5113388246675,1750.5918939725532 929.2195141193864,1750.8486139590427 931.6657921762159,1751.2257082049573 936.6096011894887,1752.8542570563884 941.2356023265774,1755.2690878386422 945.3950668658138,1758.381414451917 949.0021005925436,1762.143589414205 950.4538935315153,1764.2535284855107 951.377697625501,1765.619579220234 951.9427332063913,1766.5518879287029 952.4287875297218,1767.533527052292 953.1297500584546,1769.034179226481 953.8849567772081,1770.7387886773818 962.6527434084609,1766.746135268642 962.9884692363506,1767.445180828084 963.7472900876822,1768.5892491885531 964.7645159750848,1769.5012448117416 966.2299384657296,1770.4851713411747 982.3373978688708,1780.8899898376135" lineWidth="0.02">
    <param key="count" value="2"/>
    <param key="spread" value="-1"/>
</poly>
<poly id="12" color="255,0,180" layer="100" type="route" shape="1059.3662512552762,1760.5875187228492 1019.4987006033825,1778.6073717750837 995.4331970369437,1788.7785655263078 965.5938098979211,1800.565687873469 964.3421235531298,1797.4046494773013 958.4538797009066,1800.388664654444 956.0117668818801,1802.6129364238861 954.0859650521675,1804.987073071098 951.2227909653011,1807.9078949583711 948.1403933716454,1810.6250373458422 947.0559960950409,1810.958698046336 945.7920793218669,1810.2126788777796 943.0674439499716,1808.493866844107 939.3167325797781,1808.980600380697 937.6510824773791,1809.9845538670745 932.9088306134196,1811.7893720521931 926.9013112944647,1812.4409052478693 920.5289233137535,1813.086953798909 916.3295056620376,1812.9605197190724 912.5920494733101,1811.6094205334762 907.4556689935503,1808.2297203664966 904.1680758070896,1805.7951761409543 901.0552063194558,1802.8423970841131 894.4120026978749,1809.8474090723764 895.2782821901034,1810.629855065357 895.0726370073128,1810.4242098825666 895.045776468741,1810.378824834635 894.9120958878113,1809.898790021297 893.1021408077119,1801.5775499989527 883.9655027722494,1798.1714481620547 879.3327723845848,1797.3638050920506 871.6480866477423,1798.5261945312368 864.2383753238837,1801.4386227321422" lineWidth="0.04">
    <param key="count" value="4"/>
    <param key="spread" value="-2"/>
</poly>
<poly id="13" color="255,0,36" layer="100" type="route" shape="863.4093955443113,1868.5007272180544 880.4016478931325,1857.3192450956403 884.6082985983786,1854.5348429621677 905.606649136867,1840.4759473159227 911.805669009612,1836.3904595041952 914.1820666359467,1834.4977534301233 917.5801933742233,1831.4478819165768 919.8440523845298,1828.5271518980983 920.8003572495047,1825.422839182565 919.8217961571926,1822.7667447891467 919.4473038759055,1822.3058312121777 915.8319193889446,1818.3278723497335 912.9180928099606,1815.8623267829012 909.8407818519426,1813.7902707378357 905.5762765567348,1810.815034485365 902.1085795337078,1808.2553138416263 901.7544655988827,1807.9180624751264 903.9514932554122,1805.6011969464225 901.846273558981,1803.58750854114 901.4543809397568,1803.1870965171502 901.0948776477451,1802.7690694334156 900.5309749037356,1802.0522439113697 898.3113391671279,1799.2394296589443 895.899164036854,1794.8749882753748 894.2153566979741,1790.1528023305834 893.0108218475939,1783.8686786537933 893.9373812407532,1775.3972784877647 895.4295620328447,1770.5618571868094 897.9028657662158,1764.809767661307 901.3466885778045,1760.2241426341113 905.830290348101,1756.6427851625604 911.5279083371332,1753.997801104424 916.5429006224783,1752.2753843992105 921.374437313465,1751.468564679939 923.5244047462066,1751.4499502432918 925.2307502926843,1751.4401436596913 926.3161752973776,1751.4672792848087 927.382677649335,1751.5837879451065 929.0690282387728,1751.8372279180855 931.4315843524317,1752.2014164099146 936.2192023789773,1753.7785141127765 940.7012046531547,1756.1181756772844 944.7301337316275,1759.132828903834 948.2242011850872,1762.7771788284101 949.6277870630306,1764.8170569710212 950.535395251002,1766.1591584404682 951.0654664127825,1767.033775857406 951.5275750594435,1767.9670541045841 952.2195001169094,1769.4483584529619 953.3799135544164,1772.0675773547637 962.1754868169216,1768.0622705372841 962.1169384727013,1767.9403616561679 962.9845801753645,1769.2484983771062 964.1490319501696,1770.2924896234833 965.679876931459,1771.320342682349 981.7966389734106,1781.7311703367773 982.1361232578854,1781.9494102339397 982.4820577847166,1782.1396742236966 982.8409265707245,1782.293475131986 983.2108675916895,1782.4247445265219 985.8627082671055,1783.3667110984843 990.1448454833367,1784.5766515895568 993.5143746020294,1784.9870429565774 996.4358298623373,1785.0582979629262 999.5938730978745,1785.2790730219456 999.9341486613905,1785.3328007425007 1004.7962411654421,1784.9367932082341 1010.3031797593175,1783.3226905169258 1015.5664738612165,1781.2235167992424 1019.7976172638713,1779.3452526634576 1059.6937487447237,1761.312481277151" lineWidth="0.04">
    <param key="count" value="4"/>
    <param key="spread" value="-2"/>
</poly>
<poly id="14" color="255,108,0" layer="100" type="route" shape="929.6747014484447,1747.883347013936 932.3684156475682,1748.2985835900854 937.7807976210227,1750.0814858872236 942.8387953468452,1752.7218243227157 947.3898662683724,1756.1271710961662 951.3357988149128,1760.2428211715899 955.4000864455836,1766.7524226452365 964.0845131830783,1762.797729462716 967.8801230685409,1767.9796573176511 984.5491324083105,1778.655255473478 987.0772917328945,1779.5532889015158 990.9351545166633,1780.643348410443 993.8056253979705,1780.9929570434226 996.6241701376626,1781.0617020370737 1002.6341739371684,1786.065346263577 999.8275014054178,1787.7519851558968 995.7857287047551,1789.5079223960306 964.0240794215737,1802.0404105468476" lineWidth="0.05">
    <param key="count" value="5"/>
    <param key="spread" value="2"/>
</poly>
<poly id="19" color="255,252,0" layer="100" type="route" shape="929.8270521726671,1746.895020520904 932.6026234713522,1747.3228753851283 938.1711964315341,1749.1572288308353 943.373193020268,1751.8727364840738 948.0547994025586,1755.3757566442493 958.5949511997845,1772.2204879222852 959.7165686958358,1776.70695790649 960.1314200826666,1783.2135743946792 959.3557054088724,1789.692430754678 958.1158715030581,1793.6470733852927 953.6008770450767,1803.6991497419294 950.4012118739012,1806.768659041735 949.1439311730694,1807.8769556132772 939.8483762839312,1814.4981691993883 934.0867540798706,1816.6909419217104 927.423033058303,1817.4136421281962 920.7066150293699,1818.0945693016363 915.3807415069437,1817.9342204213913 910.336925790035,1816.1108691997858 904.5914965096745,1812.330419450255 896.6035376443966,1805.1466341329453 894.1329912493081,1802.0158555115831 891.3262539447192,1796.937517586938 889.3769649530387,1791.470796504125 887.9587672286092,1784.07198201931 889.0189281388701,1774.3790822683532 889.797637084336,1771.8556710020337 886.7223124465595,1770.9109634335664 888.3445453458573,1762.042031150847 887.6865413831326,1757.9364571299031 886.3472062228844,1753.9184516491584 882.4239101102366,1744.4234966836596 869.1461742968868,1724.0372783313683" lineWidth="0.05">
    <param key="count" value="5"/>
    <param key="spread" value="3"/>
</poly>
<poly id="20" color="114,255,0" layer="100" type="route" shape="901.3150583281682,1801.431586625391 899.1470087506918,1798.6841444884167 896.813746055281,1794.4624824130622 895.1830350469612,1789.889203495875 894.0212327713908,1783.82801798069 894.9210718611299,1775.6009177316469 896.3693430492672,1770.9077857802145 898.7742986493237,1765.3146514919604 902.0700328667066,1760.926213951167 906.3604355221516,1757.4991777438404 911.9018625056998,1754.926701656636 916.7893509337175,1753.2480765988157 921.4616559701975,1752.4678470199085 923.5316071193099,1752.4499253649378 925.2211254390264,1752.4402154895372 926.2492629460666,1752.4659189272131 927.2540164740025,1752.5756819176597 928.9185423581591,1752.8258418771284 931.1973765286477,1753.1771246148717 935.8288035684659,1754.7027711691649 940.166806979732,1756.9672635159263 944.0652005974413,1759.8842433557509 947.4463017776308,1763.410768242615 948.8016805945459,1765.380585456532 949.693092876503,1766.6987376607021 950.1881996191737,1767.515663786109 950.6263625891653,1768.4005811568761 951.3092501753641,1769.862537679443 952.8748703316245,1773.3963660321454 961.6982302253825,1769.3784058059261 961.245407709052,1768.4355424842518 962.2218702630469,1769.9077475656593 963.5335479252545,1771.0837344352249 965.1298153971886,1772.1555140235237 981.254958460116,1782.5717555051658 981.6241848868282,1782.8091153509097 982.0430866770749,1783.039511335545 982.4763898560868,1783.225212697979 982.8763013875343,1783.3671167897828 985.5590624006583,1784.3200666477264 989.9472682250049,1785.5599773843355 993.4415619030441,1785.9855644348659 996.388744793506,1786.0574469443893 999.4808096468117,1786.2736095329183 999.8962229920857,1786.339201113751 1004.9793617481631,1785.9251898123512 1010.6297696389761,1784.2690357753888 1015.9547107918249,1782.1452751988636 1020.2064258958069,1780.2578789951865 1060.1056231170855,1762.2237219157264" lineWidth="0.07">
    <param key="count" value="7"/>
    <param key="spread" value="-3"/>
</poly>
<poly id="23" color="0,255,30" layer="100" type="route" shape="860.1112089113773,1863.4885455638907 877.0967042137349,1852.3115098087198 881.2834028032428,1849.5403140756644 902.2867017262662,1835.4781053681545 910.3058667281065,1829.9144931397536 914.8953922481888,1826.2183375756442 906.448436296115,1818.739458524329 902.0774468865304,1815.68993102927 893.2810688022345,1808.1338750497473 893.2973216657441,1802.571140682111 890.4116719262922,1797.3500234492506 888.4092866040517,1791.7343953388333 886.9483563048124,1784.1126426924136 888.0352375184935,1774.175443024471 889.7908759343104,1768.4862856263805 892.6742684675684,1761.780464677386 897.0066228443911,1756.0117147317771 902.6494193037978,1751.5044296748795 909.2841833257335,1748.4243977911524 915.0641987550432,1746.4392312015789 932.8368312951363,1746.347167180171 938.5615952420454,1748.232971774447 943.9075906936906,1751.0236486454316 948.7197325367449,1754.6243421923325 956.4101728911673,1764.094845290473 965.0390263661567,1760.165458925432 968.9802461370817,1766.3093146353021 987.684583465789,1777.6465778030313 1000.530386522977,1779.3526117538024 1353.0339957802407,1818.7955991960835 1073.786665083219,1787.8417137017711 1092.76853447089,1793.3166744443324" lineWidth="0.01">
    <param key="count" value="1"/>
    <param key="spread" value="4"/>
</poly>
<poly id="24" color="0,255,174" layer="100" type="route" shape="993.5518411568527,1783.9391789063047 961.6482724158485,1796.527665532128 957.3077594018132,1798.7273293088883 954.5535337637601,1801.2358728477723 952.5919301043349,1803.654146142196 949.8455819306021,1806.455789916742 947.1407867432908,1808.8400746916843 947.3119921900819,1808.7873960926718 946.8341586437339,1808.5053577555589 943.524887899943,1806.417733688214 938.6434651595562,1807.0512007613943 936.7721649547583,1808.179107734149 932.4376612268392,1809.8287441043863 926.6926225889293,1810.4518104957385 920.4578466275069,1811.083907597818 916.7090113240753,1810.971039438145 913.4940989466202,1809.8088410669523 908.6013379871006,1806.5894407329931 905.4561516141791,1804.2603522819086 903.8888662412919,1802.7736701567699 903.252547117962,1802.1650170822802 902.9287618795136,1801.8341930343004 902.6397552954901,1801.4981388668314 902.1019498074712,1800.8144878227392 899.9826783342559,1798.1288593178888 897.7283280737079,1794.0499765507495 896.1507133959483,1789.6256046611668 895.0316436951877,1783.7873573075865 895.9047624815065,1775.804556975529 897.3091240656895,1771.2537143736192 899.6457315324316,1765.819535322614 902.7933771556088,1761.6282852682227 906.8905806962022,1758.3555703251207 912.2758166742665,1755.8556022088478 917.0358012449567,1754.220768798421 921.5488746269299,1753.4671293598778 923.5388094924132,1753.4499004865836 925.2115005853686,1753.4402873193828 926.1823505947553,1753.4645585696173 927.12535529867,1753.567575890213 928.7680564775455,1753.8144558361712 930.9631687048636,1754.152832819829 935.4384047579546,1755.6270282255532 939.6324093063093,1757.8163513545685 943.400267463255,1760.6356578076677 946.6684023701744,1764.04435765682 947.9755741260612,1765.9441139420426 948.850790502004,1767.2383168809363 949.3109328255649,1767.9975517148118 949.725150118887,1768.8341082091683 950.3990002338188,1770.2767169059239 952.3698271088326,1774.7251547095273 961.2209736338433,1770.6945410745682 960.3738769454027,1768.9307233123357 961.4591603507291,1770.5669967542126 962.9180639003393,1771.8749792469664 964.5797538629182,1772.990685364698 980.7132779468213,1783.4123406735546 981.112246515771,1783.6688204678794 981.6041155694332,1783.9393484473935 982.111853141449,1784.156950263972 982.5417351833792,1784.3094890530438 985.2286318041794,1785.2639079299304 991.1477172055155,1787.027508794388 996.1641768747667,1787.3083284196387 1000.9109293191906,1786.0912124082479 1006.4370463360864,1783.8933249583463 1013.3149721766152,1781.1201292409862 1022.2551780596219,1777.5200463350773 1039.0662101085486,1770.73963007739" lineWidth="0.01">
    <param key="count" value="1"/>
    <param key="spread" value="-4"/>
</poly>
<poly id="25" color="0,192,255" layer="100" type="route" shape="878.4392241769451,1718.0358673002672 884.3485122561049,1727.1785394227406 893.083183955766,1734.0685074899495 907.4466972591156,1741.2277187312975 913.2373168932879,1739.2472463911379 928.4030130398125,1738.0146205949552 928.463077079236,1744.4214514668008 933.0710391189205,1745.3714589752137 938.9519940525568,1747.3087147180586 944.4419883671133,1750.1745608067895 949.3846656709311,1753.8729277404154 956.9152161139591,1762.7660566130912 965.5162829576958,1758.84932365679 969.5303076713521,1765.4741432941275 1000.6604831537212,1778.360764692253 1437.0424947251022,1827.2119989950866 1065.0773217330172,1785.4911578324618" lineWidth="0.03">
    <param key="count" value="3"/>
    <param key="spread" value="5"/>
</poly>
<poly id="28" color="0,48,255" layer="100" type="route" shape="880.7182862147545,1848.715235455892 901.7333771578327,1834.6451317101933 914.1367403102361,1826.8704219695553 905.8830453701437,1819.564323155411 892.4616520821802,1803.1264258526387 889.4970899078652,1797.762529311563 887.4416082550646,1791.9979941735417 885.9379453810154,1784.1533033655169 887.051546898117,1773.9718037805887 888.7723171374341,1768.39563692913" lineWidth="0.03">
    <param key="count" value="3"/>
    <param key="spread" value="5"/>
</poly>
<poly id="29" color="96,0,255" layer="100" type="route" shape="886.2817137852455,1857.0247645441077 907.2666228421673,1842.9748682898066 913.5691725240298,1838.8211487604879 916.1201665898668,1836.789383575308 919.7854834355583,1833.4997047914421 922.5501309613248,1829.9328797452458 923.9658931237618,1825.3370979564127 922.4644903929815,1821.2618619728667 921.7232596897638,1820.3495780304445 917.9197984723613,1816.164680874334 914.7302320249015,1813.4658169572526 911.5369546298564,1811.315676844589 907.3256913918369,1808.3775862134128 904.0414488342693,1805.953284604066 905.9911639972067,1807.8101561878157 908.1837331385306,1805.4979923660562 903.9556838974524,1801.4537713528503 903.665952349392,1801.1577412928755 903.4121941193627,1800.8626735835392 902.887437259339,1800.1956097784241 900.8183479178198,1797.5735741473611 898.6429100921349,1793.6374706884371 897.1183917449354,1789.3620058264585 896.0420546189846,1783.7466966344832 896.8884531018831,1776.0081962194113 898.248905082112,1771.599642967024 900.5171644155395,1766.3244191532674 903.5167214445111,1762.3303565852784 907.4207258702527,1759.2119629064007 912.649770842833,1756.78450276106 917.2822515561959,1755.193460998026 921.6360932836624,1754.4664116998474 923.5460118655166,1754.4498756082296 925.2018757317107,1754.4403591492285 926.1154382434441,1754.4631982120218 926.9966941233375,1754.5594698627663 928.617570596932,1754.803069795214 930.7289608810795,1755.1285410247863 935.0480059474432,1756.5512852819415 939.0980116328867,1758.6654391932107 942.7353343290688,1761.3870722595848 945.8905029627178,1764.677947071025 947.1494676575766,1766.507642427553 948.008488127505,1767.7778961011704 948.4336660319561,1768.4794396435148 948.8239376486088,1769.2676352614603 949.4887502922736,1770.690896132405 951.8647838860409,1776.053943386909 960.7437170423042,1772.0106763432102 959.5023461817533,1769.4259041404196 960.6964504384114,1771.2262459427657 962.3025798754242,1772.6662240587082 964.0296923286478,1773.8258567058726 980.1715974335266,1784.2529258419431 980.6003081447137,1784.5285255848494 981.1651444617917,1784.8391855592417 981.7473164268113,1785.088687829965 982.2071689792239,1785.2518613163047 984.9182897552241,1786.214884912413 990.9746465068944,1788.019385992985 996.2627210934583,1788.3154105245485 1001.2211616489882,1787.04401551031 1006.808807920108,1784.821656197933 1013.6887152207689,1782.0476615512327 1022.6289725745273,1778.4475579188465 1039.440262635686,1771.6670375967374" lineWidth="0.04">
    <param key="count" value="4"/>
    <param key="spread" value="-5"/>
</poly>
<poly id="30" color="240,0,255" layer="100" type="route" shape="1059.7781256276382,1761.4987593614246 1019.8993503016912,1779.523685887542 995.8115985184719,1789.704282763154 965.0319049489606,1801.8628439367346 963.8160617765649,1798.7923247386507 959.0269398504533,1801.219332327222 956.74088344094,1803.301468211943 954.8329825260838,1805.653536535549 951.9113954826505,1808.6339474791855 949.2289978703285,1810.9984887270418 944.7813800850786,1805.9515465593822 942.0712140916809,1810.2025730570908 942.6972135954998,1810.515572809" lineWidth="0.01">
    <param key="count" value="1"/>
    <param key="spread" value="-1"/>
</poly>
<poly id="31" color="255,0,126" layer="100" type="route" shape="908.8310261298542,1746.4653633725595 953.377862346139,1808.1439112265548 934.7935081597412,1819.6318838434208 927.736066116606,1820.3972842563924 908.9838515800699,1818.8117383995718 886.4739299060776,1792.26159300825 884.9275344572185,1784.1939640386204 887.8167805649209,1768.100764314956" lineWidth="0.02">
    <param key="count" value="2"/>
    <param key="spread" value="6"/>
</poly>
<poly id="32" color="255,18,0" layer="100" type="route" shape="928.4558956546658,1755.7899589581918 930.4947530572954,1756.1042492297436 934.6576071369319,1757.4755423383297 938.5636139594641,1759.5145270318528 942.0704011948825,1762.1384867115016 945.1126035552614,1765.3115364852301 946.3233611890919,1767.0711709130637 947.166185753006,1768.3174753214046 947.5563992383474,1768.961327572218 947.9227251783306,1769.7011623137523 948.5785003507283,1771.1050753588859 948.9176871629152,1771.8706684492506 949.3661791959787,1772.8535339685175 949.537151236439,1773.2581677976068 949.6461525654133,1773.5897135065704 949.880097600431,1774.4690241554297 950.7868626083285,1778.09608418702 951.0971598346669,1782.962851210642 950.518589182255,1787.795138490644 949.5182569938837,1790.9858532294147 948.3738484815572,1794.7311901788469 947.6618403140405,1796.5211920205477 946.7582459098469,1797.7917005161412 944.3075762521977,1800.1426819165301 936.442137653861,1807.076088773445 947.5679882851229,1806.6160941390074 947.8762379656009,1806.7980366333384 943.9823318499145,1804.341600532321 937.9701977393343,1805.1218011420913 935.8932474321374,1806.3736616012234 931.9664918402588,1807.8681161565792 926.483933883394,1808.4627157436078 920.3867699412602,1809.0808613967272 917.0885169861128,1808.9815591572174 914.3961484199302,1808.0082616004283 909.7470069806509,1804.9491610994899 906.7442274212688,1802.725528422863 905.259226897721,1801.316899354812" lineWidth="0.02">
    <param key="count" value="2"/>
    <param key="spread" value="-6"/>
</poly>
<poly id="34" color="255,162,0" layer="100" type="route" shape="880.1189138477232,1716.950214220374 885.8479171585468,1725.8139551918368 894.2884575380724,1732.4719104859294 957.9253025595428,1760.1084792583276 966.4707961407742,1756.2170531195059 970.6304307398931,1763.8038006117786 1000.9206764152096,1776.377070569154 1605.0594926153572,1844.04479859314 1074.5791638956334,1784.9479989780993 1093.5999353240575,1790.4341802775816" lineWidth="0.01">
    <param key="count" value="1"/>
    <param key="spread" value="7"/>
</poly>
<poly id="35" color="204,255,0" layer="100" type="route" shape="968.4078063933877,1767.1300304871595 987.3809375993418,1778.5999333522736 991.132731774995,1779.6600226156643 996.6712552064939,1780.0625530556106 1000.1237770079143,1780.300798886249 1003.8806382518368,1779.994810187649 1008.6702303610239,1778.5909642246113 1013.625289208175,1776.6147248011366 1017.7535741041931,1774.7821210048135 1062.2517667974078,1764.7703107711739 1021.5356231170856,1783.1737219157267" lineWidth="0.02">
    <param key="count" value="2"/>
    <param key="spread" value="3"/>
</poly>
<poly id="36" color="60,255,0" layer="100" type="route" shape="952.6,1809.36 949.14,1812.41 949.14,1812.41 946.8,1813.13 944.75,1811.92 942.61,1810.57 939.99,1810.91 939.99,1810.91 938.53,1811.79 933.38,1813.75 927.11,1814.43 927.11,1814.43 920.6,1815.09 915.95,1814.95 911.69,1813.41 906.31,1809.87 906.31,1809.87 902.88,1807.33 901.13,1805.67 894.52,1812.64 893.9,1812.08 893.48,1811.66 893.19,1811.17 892.97,1810.38 892.97,1810.38 891.38,1803.07 883.44,1800.11 879.31,1799.39 872.17,1800.47 864.97,1803.3" lineWidth="0.02">
    <param key="count" value="2"/>
</poly>