<?xml version="1.0" encoding="UTF-8"?>

<!-- generated on 2021-08-14 16:58:40 by Eclipse SUMO netconvert Version 1.9.2
<configuration xmlns:xsi="http://www.w3.org/2001/XMLSchema-instance" xsi:noNamespaceSchemaLocation="http://sumo.dlr.de/xsd/netconvertConfiguration.xsd">

    <input>
        <osm-files value="PoduRos.osm"/>
    </input>

    <output>
        <output-file value="PoduRos.net.xml"/>
    </output>

    <projection>
        <proj.utm value="true"/>
    </projection>

    <processing>
        <geometry.remove value="true"/>
        <roundabouts.guess value="true"/>
    </processing>

    <tls_building>
        <tls.discard-simple value="true"/>
        <tls.join value="true"/>
        <tls.guess-signals value="true"/>
    </tls_building>

    <ramp_guessing>
        <ramps.guess value="true"/>
    </ramp_guessing>

    <junctions>
        <junctions.join value="true"/>
    </junctions>

    <report>
        <aggregate-warnings value="5"/>
    </report>

</configuration>
-->

<net version="1.9" junctionCornerDetail="5" limitTurnSpeed="5.50" xmlns:xsi="http://www.w3.org/2001/XMLSchema-instance" xsi:noNamespaceSchemaLocation="http://sumo.dlr.de/xsd/net_file.xsd">

    <location netOffset="-543613.18,-5220352.17" convBoundary="0.00,0.00,2188.29,2658.81" origBoundary="27.343055,47.129163,27.737062,47.199848" projParameter="+proj=utm +zone=35 +ellps=WGS84 +datum=WGS84 +units=m +no_defs"/>

    <type id="highway.bridleway" priority="1" numLanes="1" speed="2.78" allow="pedestrian" oneway="1" width="2.00"/>
    <type id="highway.bus_guideway" priority="1" numLanes="1" speed="27.78" allow="bus" oneway="1"/>
    <type id="highway.cycleway" priority="1" numLanes="1" speed="8.33" allow="bicycle" oneway="0" width="1.00"/>
    <type id="highway.footway" priority="1" numLanes="1" speed="50.78" allow="pedestrian" oneway="1" width="2.00"/>
    <type id="highway.ford" priority="1" numLanes="1" speed="2.78" allow="army" oneway="0"/>
    <type id="highway.living_street" priority="2" numLanes="1" speed="2.78" disallow="tram rail_urban rail rail_electric rail_fast ship" oneway="0"/>
    <type id="highway.motorway" priority="14" numLanes="2" speed="39.44" allow="private emergency authority army vip passenger hov taxi bus coach delivery truck trailer motorcycle evehicle custom1 custom2" oneway="1"/>
    <type id="highway.motorway_link" priority="9" numLanes="1" speed="22.22" allow="private emergency authority army vip passenger hov taxi bus coach delivery truck trailer motorcycle evehicle custom1 custom2" oneway="1"/>
    <type id="highway.path" priority="1" numLanes="1" speed="2.78" allow="pedestrian bicycle" oneway="0" width="2.00"/>
    <type id="highway.pedestrian" priority="1" numLanes="1" speed="60.78" allow="pedestrian" oneway="1" width="2.00"/>
    <type id="highway.primary" priority="12" numLanes="2" speed="27.78" disallow="tram rail_urban rail rail_electric rail_fast ship" oneway="0"/>
    <type id="highway.primary_link" priority="7" numLanes="1" speed="22.22" disallow="tram rail_urban rail rail_electric rail_fast ship" oneway="0"/>
    <type id="highway.raceway" priority="15" numLanes="2" speed="83.33" allow="vip" oneway="0"/>
    <type id="highway.residential" priority="3" numLanes="1" speed="13.89" disallow="tram rail_urban rail rail_electric rail_fast ship" oneway="0"/>
    <type id="highway.secondary" priority="11" numLanes="1" speed="27.78" disallow="tram rail_urban rail rail_electric rail_fast ship" oneway="0"/>
    <type id="highway.secondary_link" priority="6" numLanes="1" speed="40.22" disallow="tram rail_urban rail rail_electric rail_fast ship" oneway="0"/>
    <type id="highway.secondary|railway.tram" priority="17" numLanes="1" speed="60.78" disallow="rail_urban rail rail_electric rail_fast ship" oneway="0"/>
    <type id="highway.service" priority="1" numLanes="1" speed="110.56" allow="pedestrian delivery bicycle" oneway="0"/>
    <type id="highway.stairs" priority="1" numLanes="1" speed="1.39" allow="pedestrian" oneway="1" width="2.00"/>
    <type id="highway.step" priority="1" numLanes="1" speed="1.39" allow="pedestrian" oneway="1" width="2.00"/>
    <type id="highway.steps" priority="1" numLanes="1" speed="1.39" allow="pedestrian" oneway="1" width="2.00"/>
    <type id="highway.tertiary" priority="10" numLanes="1" speed="200.22" disallow="tram rail_urban rail rail_electric rail_fast ship" oneway="0"/>
    <type id="highway.tertiary_link" priority="5" numLanes="1" speed="22.22" disallow="tram rail_urban rail rail_electric rail_fast ship" oneway="0"/>
    <type id="highway.track" priority="1" numLanes="1" speed="5.56" allow="pedestrian motorcycle moped bicycle" oneway="0"/>
    <type id="highway.trunk" priority="13" numLanes="2" speed="27.78" disallow="pedestrian bicycle tram rail_urban rail rail_electric rail_fast ship" oneway="0"/>
    <type id="highway.trunk_link" priority="8" numLanes="1" speed="75.22" disallow="pedestrian bicycle tram rail_urban rail rail_electric rail_fast ship" oneway="0"/>
    <type id="highway.unclassified" priority="4" numLanes="1" speed="13.89" disallow="tram rail_urban rail rail_electric rail_fast ship" oneway="0"/>
    <type id="highway.unsurfaced" priority="1" numLanes="1" speed="8.33" disallow="tram rail_urban rail rail_electric rail_fast ship" oneway="0"/>
    <type id="railway.highspeed" priority="21" numLanes="1" speed="69.44" allow="rail_fast" oneway="1"/>
    <type id="railway.light_rail" priority="19" numLanes="1" speed="100.78" allow="rail_urban" oneway="1"/>
    <type id="railway.preserved" priority="16" numLanes="1" speed="27.78" allow="rail" oneway="1"/>
    <type id="railway.rail" priority="20" numLanes="1" speed="44.44" allow="rail" oneway="1"/>
    <type id="railway.subway" priority="18" numLanes="1" speed="27.78" allow="rail_urban" oneway="1"/>
    <type id="railway.tram" priority="17" numLanes="1" speed="13.89" allow="tram" oneway="1"/>

    <edge id=":1140738703_0" function="internal">
        <lane id=":1140738703_0_0" index="0" allow="pedestrian delivery bicycle" speed="5.52" length="5.59" shape="867.21,2214.16 865.89,2214.08 864.75,2214.52 863.80,2215.49 863.03,2216.99"/>
    </edge>
    <edge id=":1140738703_1" function="internal">
        <lane id=":1140738703_1_0" index="0" disallow="tram rail_urban rail rail_electric rail_fast ship" speed="13.89" length="9.48" shape="867.21,2214.16 857.99,2211.96"/>
    </edge>
    <edge id=":1140738703_2" function="internal">
        <lane id=":1140738703_2_0" index="0" disallow="tram rail_urban rail rail_electric rail_fast ship" speed="3.65" length="2.34" shape="867.21,2214.16 866.23,2213.09 866.04,2212.22"/>
    </edge>
    <edge id=":1140738703_9" function="internal">
        <lane id=":1140738703_9_0" index="0" disallow="tram rail_urban rail rail_electric rail_fast ship" speed="3.65" length="2.34" shape="866.04,2212.22 866.61,2211.54 867.97,2211.05"/>
    </edge>
    <edge id=":1140738703_3" function="internal">
        <lane id=":1140738703_3_0" index="0" disallow="tram rail_urban rail rail_electric rail_fast ship" speed="13.89" length="9.51" shape="858.72,2208.85 867.97,2211.05"/>
    </edge>
    <edge id=":1140738703_4" function="internal">
        <lane id=":1140738703_4_0" index="0" allow="pedestrian delivery bicycle" speed="6.76" length="5.23" shape="858.72,2208.85 861.55,2209.95 863.07,2211.53"/>
    </edge>
    <edge id=":1140738703_5" function="internal">
        <lane id=":1140738703_5_0" index="0" disallow="tram rail_urban rail rail_electric rail_fast ship" speed="3.65" length="2.34" shape="858.72,2208.85 859.71,2209.90 859.91,2210.77"/>
    </edge>
    <edge id=":1140738703_10" function="internal">
        <lane id=":1140738703_10_0" index="0" allow="pedestrian delivery bicycle" speed="6.76" length="5.65" shape="863.07,2211.53 863.21,2211.68 863.71,2214.02 863.03,2216.99"/>
    </edge>
    <edge id=":1140738703_11" function="internal">
        <lane id=":1140738703_11_0" index="0" disallow="tram rail_urban rail rail_electric rail_fast ship" speed="3.65" length="2.34" shape="859.91,2210.77 859.34,2211.46 857.99,2211.96"/>
    </edge>
    <edge id=":1140738703_6" function="internal">
        <lane id=":1140738703_6_0" index="0" allow="pedestrian delivery bicycle" speed="4.90" length="5.17" shape="860.04,2215.84 860.37,2214.43 860.13,2213.31 859.34,2212.49 857.99,2211.96"/>
    </edge>
    <edge id=":1140738703_7" function="internal">
        <lane id=":1140738703_7_0" index="0" allow="pedestrian delivery bicycle" speed="7.23" length="10.27" shape="860.04,2215.84 861.43,2213.23 863.21,2211.57 865.39,2210.84 867.97,2211.05"/>
    </edge>
    <edge id=":1140738703_8" function="internal">
        <lane id=":1140738703_8_0" index="0" allow="pedestrian delivery bicycle" speed="3.65" length="4.67" shape="860.04,2215.84 861.22,2215.00 862.11,2214.92 862.72,2215.58 863.03,2216.99"/>
    </edge>
    <edge id=":1140738926_0" function="internal">
        <lane id=":1140738926_0_0" index="0" allow="pedestrian delivery bicycle" speed="5.00" length="5.04" shape="840.19,2254.30 839.67,2255.59 839.69,2256.72 840.26,2257.70 841.38,2258.52"/>
    </edge>
    <edge id=":1140738926_1" function="internal">
        <lane id=":1140738926_1_0" index="0" allow="pedestrian delivery bicycle" speed="3.65" length="2.08" shape="840.19,2254.30 838.89,2254.94 838.25,2254.90"/>
    </edge>
    <edge id=":1140738926_4" function="internal">
        <lane id=":1140738926_4_0" index="0" allow="pedestrian delivery bicycle" speed="3.65" length="2.59" shape="838.25,2254.90 838.00,2254.88 837.51,2254.13 837.42,2252.69"/>
    </edge>
    <edge id=":1140738926_2" function="internal">
        <lane id=":1140738926_2_0" index="0" allow="pedestrian delivery bicycle" speed="13.89" length="6.47" shape="835.62,2258.84 836.38,2257.12 836.54,2255.78 836.69,2254.44 837.42,2252.69"/>
    </edge>
    <edge id=":1140738926_3" function="internal">
        <lane id=":1140738926_3_0" index="0" allow="pedestrian delivery bicycle" speed="5.71" length="3.18" shape="835.62,2258.84 836.57,2257.86 837.84,2257.48 838.32,2257.54"/>
    </edge>
    <edge id=":1140738926_5" function="internal">
        <lane id=":1140738926_5_0" index="0" allow="pedestrian delivery bicycle" speed="5.71" length="3.24" shape="838.32,2257.54 839.45,2257.70 841.38,2258.52"/>
    </edge>
    <edge id=":1140739891_0" function="internal">
        <lane id=":1140739891_0_0" index="0" allow="delivery bicycle" speed="6.48" length="7.41" shape="836.63,2191.23 834.11,2190.23 832.11,2189.77 830.63,2189.86 829.66,2190.50"/>
    </edge>
    <edge id=":1140739891_1" function="internal">
        <lane id=":1140739891_1_0" index="0" allow="delivery bicycle" speed="7.89" length="16.15" shape="836.63,2191.23 831.83,2188.47 829.13,2185.56 828.52,2182.50 830.00,2179.30"/>
    </edge>
    <edge id=":1140739891_2" function="internal">
        <lane id=":1140739891_2_0" index="0" allow="pedestrian delivery bicycle" speed="3.65" length="4.67" shape="836.63,2191.23 835.87,2190.00 835.84,2189.11 836.54,2188.55 837.97,2188.32"/>
    </edge>
    <edge id=":1140739891_3" function="internal">
        <lane id=":1140739891_3_0" index="0" allow="delivery bicycle" speed="5.48" length="7.14" shape="835.24,2182.98 834.54,2184.45 834.76,2185.83 835.90,2187.12 837.97,2188.32"/>
    </edge>
    <edge id=":1140739891_4" function="internal">
        <lane id=":1140739891_4_0" index="0" disallow="pedestrian rail_urban rail rail_electric rail_fast ship" speed="13.89" length="9.29" shape="835.24,2182.98 829.66,2190.50"/>
        <lane id=":1140739891_4_1" index="1" disallow="pedestrian rail_urban rail rail_electric rail_fast ship" speed="13.89" length="9.29" shape="832.62,2181.14 827.13,2188.55"/>
    </edge>
    <edge id=":1140739891_6" function="internal">
        <lane id=":1140739891_6_0" index="0" disallow="pedestrian rail_urban rail rail_electric rail_fast ship" speed="3.65" length="2.34" shape="832.62,2181.14 831.27,2181.66 830.39,2181.53"/>
    </edge>
    <edge id=":1140739891_11" function="internal">
        <lane id=":1140739891_11_0" index="0" disallow="pedestrian rail_urban rail rail_electric rail_fast ship" speed="3.65" length="2.34" shape="830.39,2181.53 829.96,2180.74 830.00,2179.30"/>
    </edge>
    <edge id=":1140739891_7" function="internal">
        <lane id=":1140739891_7_0" index="0" disallow="pedestrian rail_urban rail rail_electric rail_fast ship" speed="13.89" length="9.00" shape="822.06,2184.64 827.38,2177.46"/>
        <lane id=":1140739891_7_1" index="1" disallow="pedestrian rail_urban rail rail_electric rail_fast ship" speed="13.89" length="9.00" shape="824.60,2186.59 830.00,2179.30"/>
    </edge>
    <edge id=":1140739891_9" function="internal">
        <lane id=":1140739891_9_0" index="0" allow="delivery bicycle" speed="8.75" length="3.16" shape="824.60,2186.59 826.38,2185.48 827.44,2185.45"/>
    </edge>
    <edge id=":1140739891_10" function="internal">
        <lane id=":1140739891_10_0" index="0" disallow="pedestrian rail_urban rail rail_electric rail_fast ship" speed="3.65" length="2.34" shape="824.60,2186.59 825.96,2186.13 826.84,2186.30"/>
    </edge>
    <edge id=":1140739891_12" function="internal">
        <lane id=":1140739891_12_0" index="0" allow="delivery bicycle" speed="8.75" length="11.03" shape="827.44,2185.45 829.20,2185.39 833.06,2186.34 837.97,2188.32"/>
    </edge>
    <edge id=":1140739891_13" function="internal">
        <lane id=":1140739891_13_0" index="0" disallow="pedestrian rail_urban rail rail_electric rail_fast ship" speed="3.65" length="2.34" shape="826.84,2186.30 827.23,2187.11 827.13,2188.55"/>
    </edge>
    <edge id=":1157445821_0" function="internal">
        <lane id=":1157445821_0_0" index="0" disallow="tram rail_urban rail rail_electric rail_fast ship" speed="13.89" length="9.40" shape="1276.77,1087.07 1267.46,1088.36"/>
    </edge>
    <edge id=":1157445821_1" function="internal">
        <lane id=":1157445821_1_0" index="0" allow="pedestrian delivery bicycle" speed="6.85" length="5.11" shape="1276.77,1087.07 1273.97,1087.06 1271.85,1086.15"/>
    </edge>
    <edge id=":1157445821_2" function="internal">
        <lane id=":1157445821_2_0" index="0" disallow="tram rail_urban rail rail_electric rail_fast ship" speed="3.65" length="2.34" shape="1276.77,1087.07 1275.47,1086.45 1274.97,1085.71"/>
    </edge>
    <edge id=":1157445821_9" function="internal">
        <lane id=":1157445821_9_0" index="0" allow="pedestrian delivery bicycle" speed="6.85" length="5.11" shape="1271.85,1086.15 1270.42,1084.35 1269.68,1081.65"/>
    </edge>
    <edge id=":1157445821_10" function="internal">
        <lane id=":1157445821_10_0" index="0" disallow="tram rail_urban rail rail_electric rail_fast ship" speed="3.65" length="2.34" shape="1274.97,1085.71 1275.25,1084.86 1276.33,1083.90"/>
    </edge>
    <edge id=":1157445821_3" function="internal">
        <lane id=":1157445821_3_0" index="0" allow="pedestrian delivery bicycle" speed="5.03" length="5.01" shape="1272.85,1081.24 1273.22,1082.57 1273.92,1083.45 1274.96,1083.90 1276.33,1083.90"/>
    </edge>
    <edge id=":1157445821_4" function="internal">
        <lane id=":1157445821_4_0" index="0" allow="pedestrian delivery bicycle" speed="6.89" length="10.16" shape="1272.85,1081.24 1272.82,1084.03 1271.90,1086.15 1270.12,1087.60 1267.46,1088.36"/>
    </edge>
    <edge id=":1157445821_5" function="internal">
        <lane id=":1157445821_5_0" index="0" allow="pedestrian delivery bicycle" speed="3.65" length="4.67" shape="1272.85,1081.24 1272.21,1082.53 1271.47,1083.03 1270.62,1082.74 1269.68,1081.65"/>
    </edge>
    <edge id=":1157445821_6" function="internal">
        <lane id=":1157445821_6_0" index="0" allow="pedestrian delivery bicycle" speed="5.07" length="5.04" shape="1267.02,1085.19 1268.33,1084.81 1269.21,1084.10 1269.66,1083.04 1269.68,1081.65"/>
    </edge>
    <edge id=":1157445821_7" function="internal">
        <lane id=":1157445821_7_0" index="0" disallow="tram rail_urban rail rail_electric rail_fast ship" speed="13.89" length="9.40" shape="1267.02,1085.19 1276.33,1083.90"/>
    </edge>
    <edge id=":1157445821_8" function="internal">
        <lane id=":1157445821_8_0" index="0" disallow="tram rail_urban rail rail_electric rail_fast ship" speed="3.65" length="2.34" shape="1267.02,1085.19 1268.32,1085.82 1268.83,1086.56"/>
    </edge>
    <edge id=":1157445821_11" function="internal">
        <lane id=":1157445821_11_0" index="0" disallow="tram rail_urban rail rail_electric rail_fast ship" speed="3.65" length="2.34" shape="1268.83,1086.56 1268.54,1087.41 1267.46,1088.36"/>
    </edge>
    <edge id=":1233571999_0" function="internal">
        <lane id=":1233571999_0_0" index="0" disallow="tram rail_urban rail rail_electric rail_fast ship" speed="11.26" length="4.33" shape="326.47,1118.19 325.19,1118.21 324.32,1118.36 323.49,1118.68 322.33,1119.23"/>
    </edge>
    <edge id=":1233571999_1" function="internal">
        <lane id=":1233571999_1_0" index="0" disallow="tram rail_urban rail rail_electric rail_fast ship" speed="3.65" length="2.34" shape="326.47,1118.19 325.28,1117.37 324.90,1116.57"/>
    </edge>
    <edge id=":1233571999_4" function="internal">
        <lane id=":1233571999_4_0" index="0" disallow="tram rail_urban rail rail_electric rail_fast ship" speed="3.65" length="2.34" shape="324.90,1116.57 325.31,1115.77 326.52,1115.00"/>
    </edge>
    <edge id=":1233571999_2" function="internal">
        <lane id=":1233571999_2_0" index="0" disallow="tram rail_urban rail rail_electric rail_fast ship" speed="12.97" length="5.80" shape="320.97,1116.33 322.53,1115.60 323.65,1115.19 324.82,1115.01 326.52,1115.00"/>
    </edge>
    <edge id=":1233571999_3" function="internal">
        <lane id=":1233571999_3_0" index="0" disallow="tram rail_urban rail rail_electric rail_fast ship" speed="3.65" length="2.34" shape="320.97,1116.33 322.40,1116.54 323.10,1117.10"/>
    </edge>
    <edge id=":1233571999_5" function="internal">
        <lane id=":1233571999_5_0" index="0" disallow="tram rail_urban rail rail_electric rail_fast ship" speed="3.65" length="2.34" shape="323.10,1117.10 323.08,1117.99 322.33,1119.23"/>
    </edge>
    <edge id=":1233572210_0" function="internal">
        <lane id=":1233572210_0_0" index="0" disallow="tram rail_urban rail rail_electric rail_fast ship" speed="13.89" length="4.98" shape="347.67,1064.60 352.04,1062.22"/>
    </edge>
    <edge id=":1233589255_0" function="internal">
        <lane id=":1233589255_0_0" index="0" disallow="tram rail_urban rail rail_electric rail_fast ship" speed="13.89" length="5.01" shape="499.10,1114.17 496.54,1109.87"/>
    </edge>
    <edge id=":1233589255_1" function="internal">
        <lane id=":1233589255_1_0" index="0" disallow="tram rail_urban rail rail_electric rail_fast ship" speed="3.65" length="2.34" shape="499.10,1114.17 499.17,1112.73 499.66,1111.98"/>
    </edge>
    <edge id=":1233589255_4" function="internal">
        <lane id=":1233589255_4_0" index="0" disallow="tram rail_urban rail rail_electric rail_fast ship" speed="3.65" length="2.34" shape="499.66,1111.98 500.55,1111.92 501.85,1112.54"/>
    </edge>
    <edge id=":1233589255_2" function="internal">
        <lane id=":1233589255_2_0" index="0" disallow="tram rail_urban rail rail_electric rail_fast ship" speed="13.89" length="5.02" shape="499.28,1108.22 501.85,1112.54"/>
    </edge>
    <edge id=":1233589255_3" function="internal">
        <lane id=":1233589255_3_0" index="0" disallow="tram rail_urban rail rail_electric rail_fast ship" speed="3.65" length="2.34" shape="499.28,1108.22 499.21,1109.66 498.73,1110.42"/>
    </edge>
    <edge id=":1233589255_5" function="internal">
        <lane id=":1233589255_5_0" index="0" disallow="tram rail_urban rail rail_electric rail_fast ship" speed="3.65" length="2.34" shape="498.73,1110.42 497.84,1110.49 496.54,1109.87"/>
    </edge>
    <edge id=":1233589316_0" function="internal">
        <lane id=":1233589316_0_0" index="0" disallow="tram rail_urban rail rail_electric rail_fast ship" speed="13.89" length="5.18" shape="430.99,1134.36 428.41,1129.87"/>
    </edge>
    <edge id=":1233589316_1" function="internal">
        <lane id=":1233589316_1_0" index="0" disallow="tram rail_urban rail rail_electric rail_fast ship" speed="3.65" length="2.34" shape="430.99,1134.36 431.06,1132.92 431.54,1132.17"/>
    </edge>
    <edge id=":1233589316_4" function="internal">
        <lane id=":1233589316_4_0" index="0" disallow="tram rail_urban rail rail_electric rail_fast ship" speed="3.65" length="2.34" shape="431.54,1132.17 432.43,1132.10 433.73,1132.71"/>
    </edge>
    <edge id=":1233589316_2" function="internal">
        <lane id=":1233589316_2_0" index="0" disallow="tram rail_urban rail rail_electric rail_fast ship" speed="13.89" length="5.06" shape="431.21,1128.33 433.73,1132.71"/>
    </edge>
    <edge id=":1233589316_3" function="internal">
        <lane id=":1233589316_3_0" index="0" disallow="tram rail_urban rail rail_electric rail_fast ship" speed="3.65" length="2.34" shape="431.21,1128.33 431.09,1129.76 430.58,1130.50"/>
    </edge>
    <edge id=":1233589316_5" function="internal">
        <lane id=":1233589316_5_0" index="0" disallow="tram rail_urban rail rail_electric rail_fast ship" speed="3.65" length="2.34" shape="430.58,1130.50 429.69,1130.53 428.41,1129.87"/>
    </edge>
    <edge id=":1233626969_0" function="internal">
        <lane id=":1233626969_0_0" index="0" allow="pedestrian delivery bicycle" speed="13.89" length="5.60" shape="590.51,1251.38 586.00,1254.70"/>
    </edge>
    <edge id=":1233626969_1" function="internal">
        <lane id=":1233626969_1_0" index="0" allow="pedestrian delivery bicycle" speed="3.65" length="2.34" shape="590.51,1251.38 589.07,1251.40 588.28,1250.97"/>
    </edge>
    <edge id=":1233626969_4" function="internal">
        <lane id=":1233626969_4_0" index="0" allow="pedestrian delivery bicycle" speed="3.65" length="2.34" shape="588.28,1250.97 588.16,1250.08 588.69,1248.74"/>
    </edge>
    <edge id=":1233626969_2" function="internal">
        <lane id=":1233626969_2_0" index="0" allow="pedestrian delivery bicycle" speed="13.89" length="5.80" shape="584.03,1252.18 588.69,1248.74"/>
    </edge>
    <edge id=":1233626969_3" function="internal">
        <lane id=":1233626969_3_0" index="0" allow="pedestrian delivery bicycle" speed="3.65" length="2.34" shape="584.03,1252.18 585.46,1252.07 586.27,1252.45"/>
    </edge>
    <edge id=":1233626969_5" function="internal">
        <lane id=":1233626969_5_0" index="0" allow="pedestrian delivery bicycle" speed="3.65" length="2.34" shape="586.27,1252.45 586.45,1253.33 586.00,1254.70"/>
    </edge>
    <edge id=":1233626980_0" function="internal">
        <lane id=":1233626980_0_0" index="0" disallow="tram rail_urban rail rail_electric rail_fast ship" speed="13.89" length="5.25" shape="549.98,1182.44 548.85,1183.51 548.10,1184.27 547.39,1185.06 546.35,1186.22"/>
    </edge>
    <edge id=":1233626980_1" function="internal">
        <lane id=":1233626980_1_0" index="0" disallow="tram rail_urban rail rail_electric rail_fast ship" speed="3.65" length="2.34" shape="549.98,1182.44 548.56,1182.66 547.72,1182.34"/>
    </edge>
    <edge id=":1233626980_4" function="internal">
        <lane id=":1233626980_4_0" index="0" disallow="tram rail_urban rail rail_electric rail_fast ship" speed="3.65" length="2.34" shape="547.72,1182.34 547.47,1181.48 547.82,1180.08"/>
    </edge>
    <edge id=":1233626980_2" function="internal">
        <lane id=":1233626980_2_0" index="0" disallow="tram rail_urban rail rail_electric rail_fast ship" speed="13.89" length="5.54" shape="543.97,1184.07 545.07,1182.85 545.83,1182.01 546.62,1181.21 547.82,1180.08"/>
    </edge>
    <edge id=":1233626980_3" function="internal">
        <lane id=":1233626980_3_0" index="0" disallow="tram rail_urban rail rail_electric rail_fast ship" speed="3.65" length="2.34" shape="543.97,1184.07 545.37,1183.72 546.23,1183.96"/>
    </edge>
    <edge id=":1233626980_5" function="internal">
        <lane id=":1233626980_5_0" index="0" disallow="tram rail_urban rail rail_electric rail_fast ship" speed="3.65" length="2.34" shape="546.23,1183.96 546.56,1184.79 546.35,1186.22"/>
    </edge>
    <edge id=":1236117703_0" function="internal">
        <lane id=":1236117703_0_0" index="0" allow="pedestrian delivery bicycle" speed="13.89" length="9.40" shape="1286.03,2041.77 1283.12,2050.71"/>
    </edge>
    <edge id=":1236117703_1" function="internal">
        <lane id=":1236117703_1_0" index="0" allow="pedestrian delivery bicycle" speed="6.92" length="5.04" shape="1286.03,2041.77 1284.81,2044.23 1283.08,2045.73"/>
    </edge>
    <edge id=":1236117703_2" function="internal">
        <lane id=":1236117703_2_0" index="0" allow="pedestrian delivery bicycle" speed="3.65" length="2.34" shape="1286.03,2041.77 1284.90,2042.67 1284.01,2042.80"/>
    </edge>
    <edge id=":1236117703_9" function="internal">
        <lane id=":1236117703_9_0" index="0" allow="pedestrian delivery bicycle" speed="6.92" length="5.13" shape="1283.08,2045.73 1280.82,2046.27 1278.04,2045.84"/>
    </edge>
    <edge id=":1236117703_10" function="internal">
        <lane id=":1236117703_10_0" index="0" allow="pedestrian delivery bicycle" speed="3.65" length="2.34" shape="1284.01,2042.80 1283.38,2042.17 1282.99,2040.78"/>
    </edge>
    <edge id=":1236117703_3" function="internal">
        <lane id=":1236117703_3_0" index="0" allow="pedestrian delivery bicycle" speed="5.12" length="5.10" shape="1278.96,2042.77 1280.37,2042.99 1281.51,2042.74 1282.38,2042.00 1282.99,2040.78"/>
    </edge>
    <edge id=":1236117703_4" function="internal">
        <lane id=":1236117703_4_0" index="0" allow="pedestrian delivery bicycle" speed="6.84" length="10.28" shape="1278.96,2042.77 1281.53,2043.96 1283.07,2045.68 1283.61,2047.93 1283.12,2050.71"/>
    </edge>
    <edge id=":1236117703_5" function="internal">
        <lane id=":1236117703_5_0" index="0" allow="pedestrian delivery bicycle" speed="3.65" length="4.67" shape="1278.96,2042.77 1279.88,2043.88 1280.04,2044.76 1279.42,2045.42 1278.04,2045.84"/>
    </edge>
    <edge id=":1236117703_6" function="internal">
        <lane id=":1236117703_6_0" index="0" allow="pedestrian delivery bicycle" speed="5.01" length="5.03" shape="1280.08,2049.72 1280.32,2048.36 1280.06,2047.26 1279.30,2046.42 1278.04,2045.84"/>
    </edge>
    <edge id=":1236117703_7" function="internal">
        <lane id=":1236117703_7_0" index="0" allow="pedestrian delivery bicycle" speed="13.89" length="9.40" shape="1280.08,2049.72 1282.99,2040.78"/>
    </edge>
    <edge id=":1236117703_8" function="internal">
        <lane id=":1236117703_8_0" index="0" allow="pedestrian delivery bicycle" speed="3.65" length="2.34" shape="1280.08,2049.72 1281.21,2048.83 1282.10,2048.70"/>
    </edge>
    <edge id=":1236117703_11" function="internal">
        <lane id=":1236117703_11_0" index="0" allow="pedestrian delivery bicycle" speed="3.65" length="2.34" shape="1282.10,2048.70 1282.73,2049.32 1283.12,2050.71"/>
    </edge>
    <edge id=":1236117715_0" function="internal">
        <lane id=":1236117715_0_0" index="0" allow="pedestrian delivery bicycle" speed="3.65" length="4.67" shape="1259.68,2040.34 1258.76,2039.23 1258.60,2038.35 1259.22,2037.70 1260.60,2037.28"/>
    </edge>
    <edge id=":1299679144_0" function="internal">
        <lane id=":1299679144_0_0" index="0" disallow="tram rail_urban rail rail_electric rail_fast ship" speed="12.96" length="5.16" shape="1171.88,1105.73 1170.40,1105.41 1169.36,1105.37 1168.30,1105.53 1166.80,1105.83"/>
    </edge>
    <edge id=":1299679144_1" function="internal">
        <lane id=":1299679144_1_0" index="0" disallow="tram rail_urban rail rail_electric rail_fast ship" speed="13.48" length="6.65" shape="1171.88,1105.73 1170.05,1105.11 1168.91,1104.40 1167.91,1103.43 1166.48,1102.06"/>
    </edge>
    <edge id=":1299820075_0" function="internal">
        <lane id=":1299820075_0_0" index="0" allow="pedestrian delivery bicycle" speed="3.65" length="4.67" shape="1560.85,1346.61 1559.46,1346.96 1558.59,1346.73 1558.27,1345.89 1558.47,1344.47"/>
    </edge>
    <edge id=":1305473671_0" function="internal">
        <lane id=":1305473671_0_0" index="0" allow="pedestrian delivery bicycle" speed="3.65" length="4.67" shape="1158.70,1233.80 1159.29,1235.12 1159.21,1236.01 1158.45,1236.48 1157.01,1236.52"/>
    </edge>
    <edge id=":1348898669_0" function="internal">
        <lane id=":1348898669_0_0" index="0" allow="pedestrian delivery bicycle" speed="5.56" length="9.39" shape="1678.60,1540.76 1676.84,1531.53"/>
    </edge>
    <edge id=":1348898669_1" function="internal">
        <lane id=":1348898669_1_0" index="0" allow="pedestrian delivery bicycle" speed="5.56" length="10.16" shape="1678.60,1540.76 1678.47,1537.98 1679.26,1535.83 1680.98,1534.30 1683.61,1533.40"/>
    </edge>
    <edge id=":1348898669_2" function="internal">
        <lane id=":1348898669_2_0" index="0" allow="pedestrian delivery bicycle" speed="3.65" length="4.67" shape="1678.60,1540.76 1679.16,1539.43 1679.87,1538.89 1680.73,1539.14 1681.74,1540.17"/>
    </edge>
    <edge id=":1348898669_3" function="internal">
        <lane id=":1348898669_3_0" index="0" allow="pedestrian delivery bicycle" speed="5.04" length="5.00" shape="1684.21,1536.54 1682.91,1536.99 1682.07,1537.74 1681.68,1538.80 1681.74,1540.17"/>
    </edge>
    <edge id=":1348898669_4" function="internal">