<?xml version="1.0" encoding="UTF-8"?>

<!-- generated on 2021-08-22 18:18:45 by Eclipse SUMO duarouter Version 1.9.2
<configuration xmlns:xsi="http://www.w3.org/2001/XMLSchema-instance" xsi:noNamespaceSchemaLocation="http://sumo.dlr.de/xsd/duarouterConfiguration.xsd">

    <input>
        <net-file value="PoduRos.net.xml"/>
        <route-files value="trips.trips.xml"/>
    </input>

    <output>
        <output-file value="PoduRos.rou.xml"/>
        <alternatives-output value="PoduRos.rou.alt.xml"/>
    </output>

    <time>
        <begin value="0"/>
        <end value="1000"/>
    </time>

    <report>
        <no-warnings value="true"/>
        <ignore-errors value="true"/>
        <no-step-log value="true"/>
    </report>

</configuration>
-->

<routes xmlns:xsi="http://www.w3.org/2001/XMLSchema-instance" xsi:noNamespaceSchemaLocation="http://sumo.dlr.de/xsd/routes_file.xsd">
    <vehicle id="0" depart="0.00">
        <route edges="25368524#5 -25368524#5 -25368524#4 -25368524#3 -25368524#2 -25368524#1 -25368524#0 22895267 305260418 305260417 277230359 29377579 173927986 324972230 324784653 305271346 305271349 -325176765#1 -290635797#10 -290635797#9 -290635797#8 -290635797#7 -290635797#6 -290635797#4 -290635797#3 -290635797#2 -290635797#1 -29374333 -686715080#1 -686715080#0 305394239 686715077#5 23457370#0 23457370#1 23457370#2 96165264 -100127338#1 -100127338#0"/>
    </vehicle>
    <vehicle id="1" depart="1.00">
        <route edges="-30824328#7 -30824328#6 -30824328#5 -30824328#3 -30824328#2 -30824328#1 -30824328#0 -240593088#5 240593088#5 724140709 332026891 676112592#2 676112592#3 676112592#4 133625074#0 133625074#1 133625074#2 133625074#4 22897481#0 277230359 29377579 173927986 324972230 324784653 305271347 258866504#0 258866504#1 258866504#2 258866504#3 258866504#4 258866504#5 258866504#6 258866504#7 258866504#8 258866504#9 258866504#10 256585921 220348185 276733451#0 276733451#1 843918866 290635050 843918865 290923600#0 -290923600#0"/>
    </vehicle>
    <vehicle id="2" depart="2.00">
        <route edges="29201170#0 29201170#2 29201170#3 29201170#4 29201170#5 29201170#6 29201170#7 29201170#8 29201170#9 305256944#0 305256944#1 305256944#2 305256944#3 52503877 682623766 305379148 29377579 173927986 324972230 324784653 305271347 258866504#0 258866504#1 258866504#2 258866504#3 258866504#4 258866504#5 258866504#6 258866504#7 258866504#8 258866504#9 258866504#10 256585921 220348185 276733451#0 276733451#1 -238740524#4 -238740524#2 -238740524#1 238740524#1"/>
    </vehicle>
    <vehicle id="3" depart="3.00">
        <route edges="52503865#0 52503865#1 -25274426#1 -25274426#0 45823926 165518602#1 165518602#3 165518602#4 165518602#5 173927986 324972230 324784653 305271346 325212457 656190841 324784649 383737633 305534238#0 305534238#1 29377424 29201250 305258287#0 305258287#1 305258287#2 22895248 25368524#0 25368524#1 23043070#0 23043070#1 23043070#2 23043070#3 23043076#0 23043076#1 23043076#2 23043076#3 23043076#4 23043076#5 -24325108 -23043194"/>
    </vehicle>
    <vehicle id="4" depart="4.00">
        <route edges="205658400#1 205658400#2 22816050#0 22816050#1 256447684#7 256447684#8 256447684#10 256447685 803073473#1 803073473#2 305272857 383737633 305534238#0 305534238#1 29377424 29201250 305258287#0 305258287#1 305258287#2 22895248 25368524#0 25368524#1 25368524#2 25368524#3 25368524#4 25368524#5 -165624922#1 -165624922#0"/>
    </vehicle>
    <vehicle id="5" depart="5.00">
        <route edges="-290635797#1 305374829#0 -305374829#0 290635797#0 290635797#2 290635797#3 290635797#4 290635797#6 290635797#7 290635797#8 290635797#9 290635797#10 290635797#11 22776494 656190841 324784649 383737633 305534238#0 663624563 682623766 305379148 29201176#0 29201176#2 29201176#3 29201176#4 29201176#5 22907197 22907198#0 22907198#1 22907198#3 22907198#4"/>
    </vehicle>
    <vehicle id="7" depart="7.00">
        <route edges="256447684#7 256447684#8 256447684#10 256447685 803073473#1 803073473#2 305272857 383737633 305534238#0 663624563 682623766 305379148 29201176#0 29201176#2 29201176#3 29201176#4 29201176#5 22907197 -22977471#2 22969188 22969148"/>
    </vehicle>
    <vehicle id="9" depart="9.00">
        <route edges="305269410#0 305269410#1 303755190#0 303755190#2 165518602#3 165518602#4 165518602#5 173927986 324972230 324784653 305271346 305271349 -325176765#1 -290635797#10 -290635797#9 -290635797#8 -290635797#7 -290635797#6 -290635797#4 -290635797#3 -290635797#2 -290635797#1 -29374333 -686715080#1 -686715080#0 305394239 686715077#5 23457370#0 23457370#1 23457370#2 96165264 -100127338#1 -100127338#0"/>
    </vehicle>
    <vehicle id="11" depart="11.00">
        <route edges="100127193 686720691 686720692#5 686720692#1 686720692#2 686720692#3 686720690#0 686720690#1 -100127193 -190733653#3 -23395979 -290923600#11 -290923600#8 -290923600#7 -290923600#3 -290923600#2 -290923600#1 -290923600#0 -843918865 -290635050 -843918866 -238740524#4 -238740524#2 -238740524#1 -238740524#0 -23533274#5"/>
    </vehicle>
    <vehicle id="12" depart="12.00">
        <route edges="686715079#0 686715078 686715077#1 686715077#2 686715077#3 686715074 686715080#0 686715080#1 29374333 290635797#0 290635797#2 290635797#3 290635797#4 290635797#6 290635797#7 290635797#8 290635797#9 290635797#10 290635797#11 22776494 656190841 324784649 383737633 305534238#0 663624563 682623766 305379148 29201176#0 29201176#2 29201176#3 29201176#4 29201176#5 -845860263"/>
    </vehicle>
    <vehicle id="17" depart="17.00">
        <route edges="165518602#0 165518602#1 25274211 22907197 -22977471#2 22977471#1"/>
    </vehicle>
    <vehicle id="18" depart="18.00">
        <route edges="30824261#0 165624922#1 -25368524#5 -25368524#4 -25368524#3 -25368524#2 -25368524#1 -25368524#0 22895267 305260418 305260417 277230359 29377579 173927986 324972230 324784653 305271347 258866504#0 258866504#1 258866504#2 258866504#3 258866504#4 258866504#5 258866504#6 258866504#7 258866504#8 258866504#9 258866504#10 -58636262#2 -58636262#1 23378822#0 23378822#1"/>
    </vehicle>
    <vehicle id="19" depart="19.00">
        <route edges="39458804#0 39458804#1 39458804#2 158005036#0 158005036#1 240593088#5 30824328#0 30824328#1 30824328#2 30824328#3 30824328#5 30824328#6 30824328#7 30824328#8 165624921#1 166728744#2 166728744#3 165624928 165624922#0 165624922#1 -446077835#1 446077835#1 319018032#0 23043127#0 23043127#1 23043127#2 23043076#3 23043076#4 23043076#5 23043076#6"/>
    </vehicle>
    <vehicle id="21" depart="21.00">
        <route edges="-290648670#1 -290923600#13 -290923600#12 -290923600#11 -290923600#8 -290923600#7 220348181#0 276733452#0 276733452#1 265855329 -58636262#2 -58636262#1 -58636262#0 30412835#0 30412835#1 30412835#2 30412835#3 30412835#4 264742390#0 264742390#1 -303781197#0 303919032#0 303919032#1 -22958065 -23378810#2 -23378810#1 -23378810#0 97564673#0 97564673#1 97564673#2 97564673#3 -32980053#2 -32980053#1"/>
    </vehicle>
    <vehicle id="23" depart="23.00">
        <route edges="-23025730#3 23025730#3 208120979#0 208120979#1 208120979#2 208120979#3 208120979#4 -32611122"/>
    </vehicle>
    <vehicle id="25" depart="25.00">
        <route edges="158005036#0 158005036#1 240593088#5 724140709 332026891 676112592#2 676112592#3 676112592#4 133625074#0 133625074#1 133625074#2 133625074#4 22897481#0 277230359 29377579 173927986 324972230 324784653 305271346 305271349 -325176765#1 -290635797#10 -290635797#9 -290635797#8 -290635797#7 -290635797#6 -290635797#4 -290635797#3 -290635797#2"/>
    </vehicle>
    <vehicle id="27" depart="27.00">
        <route edges="256447684#4 256447684#5 256447684#6 256447684#7 256447684#8 256447684#10 256447685 803073473#1 803073473#2 305272857 383737633 324962581 324972230 25367556 30959184#0 30959184#1 -305429593#1 -305429593#0 -915091841#1 -915091841#0 23378815#3"/>
    </vehicle>
    <vehicle id="28" depart="28.00">
        <route edges="-23533274#5 23533274#5 238740524#0 238740524#1 238740524#2 238740524#3 843918866 290635050 843918865 290923600#0 290923600#1 290923600#2 290923600#3 220348181#0 276733452#0 276733452#1 265855329 -58636262#2 -58636262#1 -58636262#0 30412835#0 30412835#1 30412835#2 30412835#3 30412835#4 264742390#0 264742390#1 -303781197#0 303919032#0 303919032#1 -22958065 -23378810#2 -23378810#1 -23378810#0 97564673#0 97564673#1 97564673#2 97564673#3 -23047070 264170805"/>
    </vehicle>
    <vehicle id="29" depart="29.00">
        <route edges="-23533274#1 -23533274#0 23394064#1 23394064#2 190733653#1 190733653#2"/>
    </vehicle>
    <vehicle id="30" depart="30.00">
        <route edges="852500192#1 58636262#0 58636262#1 58636262#2 256585921 220348185 276733451#0 276733451#1 843918866 290635050 843918865 290923600#0 290923600#1 290923600#2 290923600#3 290923600#7 290923600#8 290923600#11 23395979 190733653#3 100127193 686720691 686720692#5 686720692#1 686720692#2 23410139#0 23410139#1 23396001#0"/>
    </vehicle>
    <vehicle id="32" depart="32.00">
        <route edges="319018032#0 -319018032#0 -25368524#5 -25368524#4 -25368524#3 -25368524#2 -25368524#1 -25368524#0 22895267 305260418 305260417 277230359 29201176#0 29201176#2 29201176#3 29201176#4 29201176#5 -845860263 29131680#1"/>
    </vehicle>
    <vehicle id="34" depart="34.00">
        <route edges="-58636262#2 58636262#2 -258866504#10 -258866504#9 -258866504#8 -258866504#7 -258866504#6 -258866504#5 -258866504#4 -258866504#3 -258866504#2 -258866504#1 -258866504#0 22778027 305271346 325212457 656190841 324784649 383737633 305534238#0 305534238#1 29377424 29201250 305258287#0 305258287#1 305258287#2 175612029 207706883 663652943 -133625074#4 -133625074#2 -133625074#1 -133625074#0 -676112592#4 -676112592#3 -676112592#2 -676112592#1 -724140709 30824328#0 -30824328#0"/>
    </vehicle>
    <vehicle id="35" depart="35.00">
        <route edges="-264138360 22958229#0 -22958229#0 264138360 238740524#0 238740524#1 238740524#2 238740524#3 843918866 290635050 843918865 290923600#0 290923600#1 290923600#2 290923600#3 220348181#0 276733452#0 276733452#1 265855329 -58636262#2 -58636262#1 -58636262#0 30412835#0 30412835#1 30412835#2 30412835#3 58636665#0"/>
    </vehicle>
    <vehicle id="36" depart="36.00">
        <route edges="40128197#5 40128197#7 40128197#8 23388862#0 23388862#1 23388862#2 23388862#3 23388862#4 23388862#5 23388862#6 -303757858#10 -303757858#9 -303757858#8 -303757858#7 -303757858#6 -303757858#5 -303757858#4 -303757858#3 -303757858#2 -303757858#1 -258866504#10 -258866504#9 -258866504#8 -258866504#7 -258866504#6 -258866504#5 -258866504#4 -258866504#3 -258866504#2 -258866504#1 -258866504#0 22778027 305271346 325212457 656190841 324784649 383737633 305534238#0 305534238#1 29377424 29201250 305258287#0 305258287#1 305258287#2 175612029 207706883 663652943 -133625074#4 -133625074#2 -133625074#1 -133625074#0 -676112592#4 -676112592#3"/>
    </vehicle>
    <vehicle id="37" depart="37.00">
        <route edges="256585921 220348185 276733451#0 276733451#1 843918866 290635050 843918865 290923600#0 290923600#1 290923600#2 290923600#3 220348181#0 276733452#0 276733452#1 265855329 -258866504#10 -258866504#9 -258866504#8 -258866504#7 -258866504#6 -258866504#5 -258866504#4 -258866504#3 -258866504#2 -258866504#1 -258866504#0 22778027 305271346 325212457 656190841 173170790 325176786 46719364#0 46719364#1 22771428#0 22771428#1 22771428#2 194138753#0 194138753#1 194138753#2"/>
    </vehicle>
    <vehicle id="40" depart="40.00">
        <route edges="23378819#2 722715186#4 722715186#5 303755190#0 303755190#2 25274211 22907197 -22977471#2 -22977471#0 158005036#0 158005036#1 240593088#5 30824328#0 30824328#1 30824328#2 30824328#3 30824328#5 30824328#6 30824328#7 30824328#8 165624921#1 166728744#2 166728744#3 165624928 165624922#0 -30824261#0"/>
    </vehicle>
    <vehicle id="42" depart="42.00">
        <route edges="190733653#1 190733653#2 190733653#3 22916795 290648670#0 290648670#2 290648670#3 -290648670#3 -290648670#2"/>
    </vehicle>
    <vehicle id="43" depart="43.00">
        <route edges="98601367#0 98601367#1 22907197 22907198#0 22907198#1 22907198#3 22907198#4"/>
    </vehicle>
    <vehicle id="45" depart="45.00">
        <route edges="-23048453#1 -23048453#0 23048453#0 23048453#1 23048453#3 23048453#4 23048453#5 23048453#6 -97564673#2 -97564673#1 -97564673#0 23378810#0 23378810#1 23378810#2 95246450 264164892 305429590 852500192#0 852500192#1 58636262#0 58636262#1 58636262#2 256585921 220348185 276733451#0 276733451#1 843918866 290635050 843918865 290923600#0 290923600#1 290923600#2 290923600#3 23394057#0 23394057#1"/>
    </vehicle>
    <vehicle id="48" depart="48.00">
        <route edges="98601367#0 98601367#1 -845860263 165518602#3 165518602#4 165518602#5 173927986 324972230 324784653 305271346 325212457 656190841 173170790 325176786 255682735#0 255682735#1 255682735#2 -256447684#10 -256447684#9 -256447684#7 -256447684#6 -256447684#5 -256447684#4 -256447684#3 -256447684#2 -256447684#1 -256447684#0 22923085#0 22923085#1"/>
    </vehicle>
    <vehicle id="49" depart="49.00">
        <route edges="73554091#0 73554091#2 73554091#3 73554091#4 73554091#5 73554091#6 73554091#7 256447684#0 256447684#1 256447684#2 256447684#3 256447684#4 256447684#5 256447684#6 256447684#7 256447684#8 256447684#10 256447685 803073473#1 803073473#2 305272857 383737633 324962581 324972230 25367556 30959184#0 30959184#1 722715186#0 722715186#1 722715186#2 722715186#3 722715186#4 722715186#5 52503876#0 29131685#0 29131685#1 305269410#0"/>
    </vehicle>
    <vehicle id="50" depart="50.00">
        <route edges="-190733653#0 -23394064#1 23533274#0 23533274#1 23533274#2 23533274#3 23533274#4 23533274#5 -264138360 22958229#0 22958229#1 264138151#1 264138151#2 264138151#3 264138151#4 264138151#5"/>
    </vehicle>
    <vehicle id="51" depart="51.00">
        <route edges="276733450#0 290923600#3 220348181#0 276733452#0 276733452#1 265855329 -258866504#10 -258866504#9 -258866504#8 -258866504#7 -258866504#6 -258866504#5 -258866504#4 -258866504#3 -258866504#2 -258866504#1 -258866504#0 22778027 305271346 325212457 656190841 324784649 383737633 305534238#0 663624563 682623766 305379148 29201176#0 29201176#2 29201176#3 29201176#4 22957475#0 22957475#1 22957475#2 22957475#3"/>
    </vehicle>
    <vehicle id="52" depart="52.00">
        <route edges="-305374829#6 -305374829#4 -305374829#2 -305374829#1 -305374829#0 -29374333 -686715080#1 -686715080#0 305394239 686715077#5 23457370#0 23457370#1 23457370#2 -54167755#2 41413300#2 41413300#3 -190733658#0 686720689 686720692#2 23410139#0"/>
    </vehicle>
    <vehicle id="54" depart="54.00">
        <route edges="22907193 158005036#0 -22957518#1 -22957518#0 98601367#1 -845860263 29131680#1 52503876#0 29131685#0 29131685#1 23378810#0 23378810#1 23378810#2 95246450 264164892 305429590 58639026#0 58639026#1 -58639945#1 58639945#1"/>
    </vehicle>
    <vehicle id="55" depart="55.00">
        <route edges="40128197#4 40128197#5 40128197#7 40128197#8 23388862#0 23388862#1 23388862#2 23388862#3 23388862#4 23388862#5 23388862#6 -303757858#10 -303757858#9 -303757858#8 -303757858#7 -303757858#6 -303757858#5 -303757858#4 -303757858#3 -303757858#2 -303757858#1 -258866504#10 -258866504#9 -258866504#8 -258866504#7 -258866504#6 -258866504#5 -258866504#4 -258866504#3 -258866504#2 -258866504#1 -258866504#0 22778027 305271346 325212457 656190841 324784649 383737633 305534238#0 305534238#1 29377424 29201250 305258287#0 305258287#1 305258287#2 22895248 25368524#0 25368524#1 25368524#2 25368524#3 25368524#4 25368524#5 -165624922#1 -30824261#0"/>
    </vehicle>
    <vehicle id="57" depart="57.00">
        <route edges="52571681#0 22916734 220348184#0 290923600#7 290923600#8 290923600#11 290923600#12 290923600#13 290648670#0 290648670#2 290648670#3 290648670#4 290648670#5 676123613 305374829#0 305374829#1 305374829#2 305374829#4 305374829#5"/>
    </vehicle>
    <vehicle id="58" depart="58.00">
        <route edges="-41891375#0 -22968757#1 -22968757#0 -22957518#0 98601367#1 -845860263 165518602#3 165518602#4 165518602#5 173927986 324972230 324784653 305271347 258866504#0 258866504#1 258866504#2 258866504#3 258866504#4 258866504#5 258866504#6 258866504#7 258866504#8 258866504#9 258866504#10 256585921 220348185 276733451#0 276733451#1 843918866 290635050 843918865 290923600#0 290923600#1 290923600#2 290923600#3 290923600#7 290923600#8 290923600#11 23395979"/>
    </vehicle>
    <vehicle id="59" depart="59.00">
        <route edges="23533274#0 23533274#1 23533274#2 23533274#3 23533274#4 -23533274#4"/>
    </vehicle>
    <vehicle id="60" depart="60.00">
        <route edges="29377424 29201250 305258287#0 305258287#1 305258287#2 175612029 207706883 663652943 -133625074#4 133625074#4 22897481#0 277230359 29377579 173927986 324972230 324784653 305271347 258866504#0 258866504#1 258866504#2 258866504#3 258866504#4 258866504#5 258866504#6 258866504#7 258866504#8 258866504#9 258866504#10 256585921 220348185 276733451#0 276733451#1 -238740524#4 -238740524#2 -238740524#1 -238740524#0 -264138360 22958229#0 22958229#1"/>
    </vehicle>
    <vehicle id="61" depart="61.00">
        <route edges="303757858#5 -303757858#5 -303757858#4 -303757858#3 -303757858#2 -303757858#1 -258866504#10 -258866504#9 -258866504#8 -258866504#7 -258866504#6 -258866504#5 -258866504#4 -258866504#3 -258866504#2 -258866504#1 -258866504#0 22778027 305271346 325212457 656190841 173170790 325176786 255682735#0 255682735#1 255682735#2 -256447684#10 -256447684#9 -256447684#7 -256447684#6 -256447684#5 -256447684#4 -256447684#3 -256447684#2 -256447684#1 -256447684#0 22923085#0 22923085#1"/>
    </vehicle>
    <vehicle id="62" depart="62.00">
        <route edges="-100127193 100127193 686720691 686720692#5 686720688 190733658#0 190733658#1 -41413300#2 54167755#2 -23457370#2 -23457370#1 -23457370#0 686715077#6 686715076 -686715079#1"/>
    </vehicle>
    <vehicle id="64" depart="64.00">
        <route edges="40128197#7 40128197#8 23388862#0 23388862#1 23388862#2 23388862#3 23388862#4 23388862#5 23388862#6 -303757858#10 -303757858#9 -303757858#8 -303757858#7 -303757858#6 -303757858#5 -303757858#4 -303757858#3 -303757858#2 -303757858#1 -58636262#2 -58636262#1 -58636262#0 30412835#0 30412835#1 30412835#2 30412835#3 30412835#4 264742390#0 264742390#1 -303781197#0 303919032#0"/>
    </vehicle>
    <vehicle id="65" depart="65.00">
        <route edges="-48580195#0 48580195#0 48580195#1 48580195#3 -303757858#1 256585921 220348185 276733451#0 276733451#1 843918866 290635050 843918865 290923600#0 290923600#1 290923600#2 290923600#3 290923600#7 290923600#8 290923600#11 290923600#12 290923600#13 -22916795"/>
    </vehicle>
    <vehicle id="66" depart="66.00">
        <route edges="40128197#7 40128197#8 23388862#0 23388862#1 23388862#2 23388862#3 23388862#4 23388862#5 23388862#6 -303757858#10 -303757858#9 -303757858#8 -303757858#7 -303757858#6 -303757858#5 -303757858#4 -303757858#3 -303757858#2 -303757858#1 -58636262#2 -58636262#1 -58636262#0 30412835#0 30412835#1 30412835#2 -23378814 305429590 58639026#0 58639026#1 58639026#2 58639026#3 58638001#0 58638001#1 58638001#2"/>
    </vehicle>
    <vehicle id="67" depart="67.00">
        <route edges="-22957475#1 -22957475#0 29201176#5 -845860263 165518602#3 165518602#4 165518602#5 173927986 324972230 324784653 305271346 325212457 656190841 173170790 325176786 46719364#0 46719364#1 22771428#0 22771428#1"/>
    </vehicle>
    <vehicle id="69" depart="69.00">
        <route edges="30121163#0 30121163#1 30121163#2 -23043070#3 -23043070#2 -23043070#1 -23043070#0 -25368524#1 -25368524#0 22895267 305260418 305260417 277230359 29377579 173927986 324972230 324784653 305271346 305271349 -325176765#1 -290635797#10 -290635797#9 -290635797#8 -290635797#7 -290635797#6 -290635797#4 -290635797#3 -290635797#2 -290635797#1 -676123613 -290648670#5 -290648670#4 -290648670#3 -290648670#2 -290648670#1 -22916795 -190733653#3 -23395979"/>
    </vehicle>
    <vehicle id="70" depart="70.00">
        <route edges="22957475#3 22968757#0 22968757#1 22969188"/>
    </vehicle>
    <vehicle id="71" depart="71.00">
        <route edges="-305374829#0 -676123613 -290648670#5 -290648670#4 -290648670#3 -290648670#2 -290648670#1 -290923600#13 -290923600#12 -290923600#11 -290923600#8 -290923600#7 220348181#0 276733452#0 276733452#1 265855329 -58636262#2 -58636262#1 -58636262#0 30412835#0 30412835#1 30412835#2 -23378814 305429590"/>
    </vehicle>
    <vehicle id="72" depart="72.00">
        <route edges="205658400#2 230365388#0 230365388#1 230365388#2 230365388#3 -305374829#4 -305374829#2 -305374829#1 -305374829#0 290635797#0 290635797#2 290635797#3 290635797#4 -290635797#4"/>
    </vehicle>
    <vehicle id="74" depart="74.00">
        <route edges="-258866504#8 258866504#8 258866504#9 258866504#10 -58636262#2 -58636262#1 -58636262#0 30412835#0 30412835#1 30412835#2 -23378814 305429590 58639026#0 58639026#1 -58639945#1"/>
    </vehicle>
    <vehicle id="75" depart="75.00">
        <route edges="97564673#3 -23047070 23047070 -97564673#3 -97564673#2 -97564673#1 -97564673#0 305269410#0 305269410#1 303755190#0 303755190#2 165518602#3 165518602#4 165518602#5 173927986 324972230 324784653 305271346 325212457 656190841 173170790 325176786 255682735#0 255682735#1 255682735#2 -256447684#10 -256447684#9 -256447684#7 -256447684#6 -256447684#5 -256447684#4 -256447684#3 -256447684#2 -256447684#1 -256447684#0 234787558#0"/>
    </vehicle>
    <vehicle id="76" depart="76.00">
        <route edges="210372956#1 210372956#2 210372956#3 210372956#4 210372956#5 305269410#0 305269410#1 303755190#0 303755190#2 165518602#3 165518602#4 165518602#5 173927986 324972230 324784653 305271346 325212457 656190841 173170790 325176786 255682735#0 255682735#1 255682735#2 -256447684#10 -256447684#9 -256447684#7 -256447684#6 -256447684#5 -256447684#4 -256447684#3 -256447684#2 -256447684#1 -256447684#0 22923085#0 22923085#1"/>
    </vehicle>
    <vehicle id="77" depart="77.00">
        <route edges="-23378814 305429590 852500192#0 852500192#1 58636262#0 58636262#1 58636262#2 256585921 220348185 276733451#0 276733451#1 843918866 290635050 843918865 290923600#0 290923600#1 290923600#2 290923600#3 290923600#7 290923600#8 290923600#11 -290923600#11"/>
    </vehicle>
    <vehicle id="79" depart="79.00">
        <route edges="-290648670#1 290648670#0 290648670#2 290648670#3 290648670#4 -290648670#4"/>
    </vehicle>
    <vehicle id="81" depart="81.00">
        <route edges="-290648670#1 -290923600#13 -290923600#12 -290923600#11 -290923600#8 -290923600#7 220348181#0 276733452#0 276733452#1 265855329 303757858#1 40128197#0"/>
    </vehicle>
    <vehicle id="82" depart="82.00">
        <route edges="32980053#1 32980053#2 -97564673#3 -97564673#2 -97564673#1 -97564673#0 305269410#0 305269410#1 303755190#0 303755190#2 25274211 22907197 -22977471#2"/>
    </vehicle>
    <vehicle id="83" depart="83.00">
        <route edges="-290923600#11 -290923600#8 -290923600#7 23394057#0 23394057#1 23533274#0 23533274#1 23533274#2"/>
    </vehicle>
    <vehicle id="84" depart="84.00">
        <route edges="-264170805 23047070 -97564673#3 -97564673#2 -97564673#1 -97564673#0 305269410#0 305269410#1 303755190#0 303755190#2 165518602#3 165518602#4 165518602#5 173927986 324972230 324784653 305271346 305271349 -325176765#1 -290635797#10 -290635797#9 -290635797#8 -290635797#7 -290635797#6 -290635797#4 -290635797#3 -290635797#2 -290635797#1 -29374333 -686715080#1 -686715080#0 305394239 686715077#5 23457370#0 23457370#1 23457370#2 -23457370#2"/>
    </vehicle>
    <vehicle id="85" depart="85.00">
        <route edges="663624563 682623766 305379148 29377579 173927986 324972230 324784653 305271346 325212457 656190841 324784649 383737633 305534238#0 305534238#1 29377424 29201250 305258287#0 305258287#1 305258287#2 22895248 25368524#0 25368524#1 23043070#0 23043070#1 23043070#2 23043070#3 23043076#0 23043076#1 23043076#2 23043076#3 23043076#4"/>
    </vehicle>
    <vehicle id="90" depart="90.00">
        <route edges="29201170#0 29201170#2 29201170#3 29201170#4 29201170#5 29201170#6 29201170#7 29201170#8 29201170#9 305256944#0 305256944#1 305256944#2 305256944#3 52503877 682623766 305379148 29377579 173927986 324972230 324784653 305271347 258866504#0 258866504#1 258866504#2 258866504#3 258866504#4 258866504#5 258866504#6 258866504#7 258866504#8 258866504#9 258866504#10 256585921 220348185 276733451#0 276733451#1 -238740524#4 -238740524#2 -238740524#1 -238740524#0 -23533274#5 -23533274#4 23533274#4"/>
    </vehicle>
    <vehicle id="92" depart="92.00">
        <route edges="190733653#2 -23395979 -290923600#11 -290923600#8 -290923600#7 220348181#0 276733452#0 276733452#1 265855329 -58636262#2 -58636262#1 -58636262#0 30412835#0 30412835#1 30412835#2 30412835#3 30412835#4 264742390#0 264742390#1 -303781197#0 303919032#0 303919032#1 -22958065 -23378810#2 -23378810#1 -23378810#0 97564673#0 97564673#1 97564673#2 -97564673#2"/>
    </vehicle>
    <vehicle id="93" depart="93.00">
        <route edges="39458804#0 39458804#1 39458804#2 158005036#0 -22957518#1 -22957518#0 98601367#1 -845860263 29131680#1 52503876#0 29131685#0 29131685#1 23378810#0 23378810#1 23378810#2 22958065 -303919032#1 -303919032#0"/>
    </vehicle>
    <vehicle id="96" depart="96.00">
        <route edges="-303757858#2 -48580195#3 48580195#3"/>
    </vehicle>
    <vehicle id="97" depart="97.00">
        <route edges="220348185 276733451#0 276733451#1 843918866 290635050 843918865 290923600#0 290923600#1 290923600#2 290923600#3 220348181#0 276733452#0 276733452#1 265855329 -58636262#2 -58636262#1 -58636262#0 30412835#0 30412835#1 30412835#2 30412835#3 30412835#4 264742390#0 264742390#1 -303781197#0 303919032#0 303919032#1 -22958065 -23378810#2 -23378810#1 -23378810#0 305269410#0 305269410#1"/>
    </vehicle>
    <vehicle id="98" depart="98.00">
        <route edges="23369472#6 23369472#8 208120979#2 208120979#3 208120979#4 -208120979#4"/>
    </vehicle>
    <vehicle id="99" depart="99.00">
        <route edges="98601367#1 -845860263 29131680#1 52503876#0 29131685#0 29131685#1 23378810#0 23378810#1 23378810#2 95246450 264164892 23378814 30412835#3 30412835#4"/>
    </vehicle>
    <vehicle id="102" depart="102.00">
        <route edges="22969188 -41891375#0 -22968757#1 -22968757#0 -22957518#0 98601367#1 -845860263 165518602#3 165518602#4 165518602#5 173927986 324972230 324784653 305271346 305271349 -325176765#1 -290635797#10 -290635797#9 -290635797#8 -290635797#7 -290635797#6"/>
    </vehicle>
    <vehicle id="103" depart="103.00">
        <route edges="190733653#2 190733653#3 22916795 -22916795"/>
    </vehicle>
    <vehicle id="104" depart="104.00">
        <route edges="165518602#0 165518602#1 165518602#3 165518602#4 165518602#5 173927986 324972230 324784653 305271346 325212457 656190841 173170790 325176786 46719364#0 -803073473#2 803073473#2"/>
    </vehicle>
    <vehicle id="107" depart="107.00">
        <route edges="686715080#0 686715080#1 29374333 290635797#0 290635797#2 290635797#3 290635797#4 290635797#6 290635797#7 290635797#8 290635797#9 290635797#10 290635797#11 22776494 656190841 324784649 383737633 305534238#0 305534238#1 29377424 29201250 305258287#0 305258287#1 305258287#2 175612029 207706883 663652943 -133625074#4 -133625074#2 -133625074#1 -133625074#0 -676112592#4 -676112592#3 -676112592#2 -676112592#1 -724140709 98601367#0"/>
    </vehicle>
    <vehicle id="108" depart="108.00">
        <route edges="23378814 -23378814 305429590 852500192#0 852500192#1 58636262#0 58636262#1 58636262#2 256585921 220348185 -22958313 -264138151#8 -264138151#7 -264138151#6 -264138151#5 -264138151#4 -264138151#3 -264138151#2 -264138151#1 264138151#1"/>
    </vehicle>
    <vehicle id="109" depart="109.00">
        <route edges="-234787558#7 -234787558#5 -234787558#4 -234787558#2 -234787558#1 256447684#0 256447684#1 256447684#2 256447684#3 256447684#4 256447684#5 256447684#6 256447684#7 256447684#8 256447684#10 256447685 803073473#1 803073473#2 305272857 383737633 305534238#0 305534238#1 29377424 29201250 305258287#0 305258287#1 305258287#2 22895248 25368524#0 25368524#1 25368524#2 25368524#3 25368524#4 25368524#5 -446077835#1 -446077835#0"/>
    </vehicle>
    <vehicle id="110" depart="110.00">
        <route edges="722715186#5 303755190#0 303755190#2 165518602#3 165518602#4 165518602#5 173927986 324972230 324784653 305271346 325212457 656190841 324784649 383737633 305534238#0 305534238#1 29377424 29201250 305258287#0 305258287#1 305258287#2 22895248 25368524#0 25368524#1 23043070#0 23043070#1 23043070#2 23043070#3 23043076#0 23043076#1 23043076#2 23043076#3 23043076#4 23043076#5 23043076#6"/>
    </vehicle>
    <vehicle id="114" depart="114.00">
        <route edges="-234787558#9 -234787558#7 -234787558#5 -234787558#4 -234787558#2 -234787558#1 256447684#0 256447684#1 256447684#2 256447684#3 256447684#4 256447684#5 256447684#6 256447684#7 256447684#8 256447684#10 256447685 803073473#1 803073473#2 305272857 383737633 305534238#0 305534238#1 29377424 29201250 305258287#0 305258287#1 305258287#2 175612029 207706883 663652943 -133625074#4 -133625074#2 -133625074#1 -133625074#0 -676112592#4 676112592#4"/>
    </vehicle>
    <vehicle id="115" depart="115.00">
        <route edges="-218911690#0 852500192#1 58636262#0 58636262#1 58636262#2 -258866504#10 -258866504#9 -258866504#8 -258866504#7 -258866504#6 -258866504#5 -258866504#4 -258866504#3 -258866504#2 -258866504#1"/>
    </vehicle>
    <vehicle id="116" depart="116.00">
        <route edges="23457370#2 -54167755#2 41413300#2 41413300#3 -190733658#0 686720689 686720692#2 686720692#3 686720690#0 686720690#1 -100127193 -190733653#3 -190733653#2 -190733653#1 -190733653#0 -23394064#1 23533274#0 23533274#1 23533274#2 23533274#3 23533274#4 23533274#5"/>
    </vehicle>
    <vehicle id="117" depart="117.00">