<?xml version="1.0" encoding="UTF-8"?>

<configuration xmlns:xsi="http://www.w3.org/2001/XMLSchema-instance" xsi:noNamespaceSchemaLocation="http://sumo.dlr.de/xsd/sumoConfiguration.xsd">

    <input>
        <net-file value="PoduRos.net.xml"/>
        <route-files value="PoduRos.rou.xml"/>
		<additional-files value="main.add.xml" />
    </input>

    <time>
        <begin value="0"/>
        <end value="10000"/>
    </time>
	
   
</configuration>
