<?xml version="1.0" encoding="UTF-8"?>

<!-- generated on 2021-09-03 14:54:18 by Eclipse SUMO netedit Version 1.9.2
<configuration xmlns:xsi="http://www.w3.org/2001/XMLSchema-instance" xsi:noNamespaceSchemaLocation="http://sumo.dlr.de/xsd/netconvertConfiguration.xsd">

    <input>
        <sumo-net-file value="C:\Users\iulia.onica\Desktop\PoduRos\PoduRos.net.xml"/>
    </input>

    <output>
        <output-file value="C:\Users\iulia.onica\Desktop\PoduRos\Sens_giratoru.net.xml"/>
    </output>

    <processing>
        <geometry.min-radius.fix.railways value="false"/>
        <geometry.max-grade.fix value="false"/>
        <offset.disable-normalization value="true"/>
        <lefthand value="false"/>
    </processing>

    <junctions>
        <no-turnarounds value="true"/>
        <junctions.corner-detail value="5"/>
        <junctions.limit-turn-speed value="5.5"/>
        <rectangular-lane-cut value="false"/>
    </junctions>

    <pedestrian>
        <walkingareas value="false"/>
    </pedestrian>

    <report>
        <aggregate-warnings value="5"/>
    </report>

</configuration>
-->

<net version="1.9" junctionCornerDetail="5" limitTurnSpeed="5.50" xmlns:xsi="http://www.w3.org/2001/XMLSchema-instance" xsi:noNamespaceSchemaLocation="http://sumo.dlr.de/xsd/net_file.xsd">

    <location netOffset="-543613.18,-5220352.17" convBoundary="851.75,1719.16,1098.51,1905.74" origBoundary="27.343055,47.129163,27.737062,47.199848" projParameter="+proj=utm +zone=35 +ellps=WGS84 +datum=WGS84 +units=m +no_defs"/>

    <type id="highway.bridleway" priority="1" numLanes="1" speed="2.78" allow="pedestrian" oneway="1" width="2.00"/>
    <type id="highway.bus_guideway" priority="1" numLanes="1" speed="27.78" allow="bus" oneway="1"/>
    <type id="highway.cycleway" priority="1" numLanes="1" speed="8.33" allow="bicycle" oneway="1" width="1.00"/>
    <type id="highway.footway" priority="1" numLanes="1" speed="2.78" allow="pedestrian" oneway="1" width="2.00"/>
    <type id="highway.ford" priority="1" numLanes="1" speed="2.78" allow="army" oneway="1"/>
    <type id="highway.living_street" priority="2" numLanes="1" speed="2.78" disallow="tram rail_urban rail rail_electric rail_fast ship" oneway="1"/>
    <type id="highway.motorway" priority="14" numLanes="2" speed="39.44" allow="private emergency authority army vip passenger hov taxi bus coach delivery truck trailer motorcycle evehicle custom1 custom2" oneway="1"/>
    <type id="highway.motorway_link" priority="9" numLanes="1" speed="22.22" allow="private emergency authority army vip passenger hov taxi bus coach delivery truck trailer motorcycle evehicle custom1 custom2" oneway="1"/>
    <type id="highway.path" priority="1" numLanes="1" speed="2.78" allow="pedestrian bicycle" oneway="1" width="2.00"/>
    <type id="highway.pedestrian" priority="1" numLanes="1" speed="2.78" allow="pedestrian" oneway="1" width="2.00"/>
    <type id="highway.primary" priority="12" numLanes="2" speed="27.78" disallow="tram rail_urban rail rail_electric rail_fast ship" oneway="1"/>
    <type id="highway.primary_link" priority="7" numLanes="1" speed="22.22" disallow="tram rail_urban rail rail_electric rail_fast ship" oneway="1"/>
    <type id="highway.raceway" priority="15" numLanes="2" speed="83.33" allow="vip" oneway="1"/>
    <type id="highway.residential" priority="3" numLanes="1" speed="13.89" disallow="tram rail_urban rail rail_electric rail_fast ship" oneway="1"/>
    <type id="highway.secondary" priority="11" numLanes="1" speed="27.78" disallow="tram rail_urban rail rail_electric rail_fast ship" oneway="1"/>
    <type id="highway.secondary_link" priority="6" numLanes="1" speed="22.22" disallow="tram rail_urban rail rail_electric rail_fast ship" oneway="1"/>
    <type id="highway.secondary|railway.tram" priority="17" numLanes="1" speed="27.78" disallow="rail_urban rail rail_electric rail_fast ship" oneway="1"/>
    <type id="highway.service" priority="1" numLanes="1" speed="5.56" allow="pedestrian delivery bicycle" oneway="1"/>
    <type id="highway.stairs" priority="1" numLanes="1" speed="1.39" allow="pedestrian" oneway="1" width="2.00"/>
    <type id="highway.step" priority="1" numLanes="1" speed="1.39" allow="pedestrian" oneway="1" width="2.00"/>
    <type id="highway.steps" priority="1" numLanes="1" speed="1.39" allow="pedestrian" oneway="1" width="2.00"/>
    <type id="highway.tertiary" priority="10" numLanes="1" speed="22.22" disallow="tram rail_urban rail rail_electric rail_fast ship" oneway="1"/>
    <type id="highway.tertiary_link" priority="5" numLanes="1" speed="22.22" disallow="tram rail_urban rail rail_electric rail_fast ship" oneway="1"/>
    <type id="highway.track" priority="1" numLanes="1" speed="5.56" allow="pedestrian motorcycle moped bicycle" oneway="1"/>
    <type id="highway.trunk" priority="13" numLanes="2" speed="27.78" disallow="pedestrian bicycle tram rail_urban rail rail_electric rail_fast ship" oneway="1"/>
    <type id="highway.trunk_link" priority="8" numLanes="1" speed="22.22" disallow="pedestrian bicycle tram rail_urban rail rail_electric rail_fast ship" oneway="1"/>
    <type id="highway.unclassified" priority="4" numLanes="1" speed="13.89" disallow="tram rail_urban rail rail_electric rail_fast ship" oneway="1"/>
    <type id="highway.unsurfaced" priority="1" numLanes="1" speed="8.33" disallow="tram rail_urban rail rail_electric rail_fast ship" oneway="1"/>
    <type id="railway.highspeed" priority="21" numLanes="1" speed="69.44" allow="rail_fast" oneway="1"/>
    <type id="railway.light_rail" priority="19" numLanes="1" speed="27.78" allow="rail_urban" oneway="1"/>
    <type id="railway.preserved" priority="16" numLanes="1" speed="27.78" allow="rail" oneway="1"/>
    <type id="railway.rail" priority="20" numLanes="1" speed="44.44" allow="rail" oneway="1"/>
    <type id="railway.subway" priority="18" numLanes="1" speed="27.78" allow="rail_urban" oneway="1"/>
    <type id="railway.tram" priority="17" numLanes="1" speed="13.89" allow="tram" oneway="1"/>

    <edge id=":1846743533_0" function="internal">
        <lane id=":1846743533_0_0" index="0" disallow="tram rail_urban rail rail_electric rail_fast ship" speed="4.79" length="4.50" shape="910.19,1831.02 911.08,1830.37 912.21,1829.50 913.07,1828.60 913.16,1827.88"/>
        <lane id=":1846743533_0_1" index="1" disallow="tram rail_urban rail rail_electric rail_fast ship" speed="6.31" length="8.58" shape="912.89,1832.97 915.01,1830.96 916.18,1829.10 916.38,1827.39 915.61,1825.82"/>
        <lane id=":1846743533_0_2" index="2" disallow="tram rail_urban rail rail_electric rail_fast ship" speed="7.20" length="11.51" shape="912.89,1832.97 916.11,1830.08 918.04,1827.59 918.69,1825.48 918.06,1823.77"/>
    </edge>
    <edge id=":2178224351_0" function="internal">
        <lane id=":2178224351_0_0" index="0" allow="tram" speed="13.89" length="0.10" shape="935.09,1829.51 935.09,1829.51"/>
    </edge>
    <edge id=":2283248927_0" function="internal">
        <lane id=":2283248927_0_0" index="0" disallow="tram rail_urban rail rail_electric rail_fast ship" speed="5.28" length="10.09" shape="1020.30,1780.44 1016.76,1782.30 1015.34,1783.73 1016.03,1784.72 1018.84,1785.29"/>
    </edge>
    <edge id=":2283248927_1" function="internal">
        <lane id=":2283248927_1_0" index="0" disallow="tram rail_urban rail rail_electric rail_fast ship" speed="13.89" length="26.17" shape="1020.30,1780.44 996.19,1790.63"/>
    </edge>
    <edge id=":2283248927_2" function="internal">
        <lane id=":2283248927_2_0" index="0" disallow="tram rail_urban rail rail_electric rail_fast ship" speed="3.65" length="2.34" shape="1020.30,1780.44 1018.87,1780.20 1018.18,1779.64"/>
    </edge>
    <edge id=":2283248927_6" function="internal">
        <lane id=":2283248927_6_0" index="0" disallow="tram rail_urban rail rail_electric rail_fast ship" speed="3.65" length="2.34" shape="1018.18,1779.64 1018.22,1778.75 1018.98,1777.52"/>
    </edge>
    <edge id=":2283248927_3" function="internal">
        <lane id=":2283248927_3_0" index="0" disallow="tram rail_urban rail rail_electric rail_fast ship" speed="13.89" length="19.99" shape="1000.01,1783.32 1004.43,1782.96 1009.65,1781.43 1014.79,1779.38 1018.98,1777.52"/>
    </edge>
    <edge id=":2283248927_4" function="internal">
        <lane id=":2283248927_4_0" index="0" disallow="tram rail_urban rail rail_electric rail_fast ship" speed="13.89" length="18.93" shape="1000.01,1783.32 1018.84,1785.29"/>
    </edge>
    <edge id=":2283248927_5" function="internal">
        <lane id=":2283248927_5_0" index="0" disallow="tram rail_urban rail rail_electric rail_fast ship" speed="5.06" length="9.16" shape="1000.01,1783.32 1001.41,1783.80 1001.04,1784.69 998.91,1785.97 995.02,1787.66"/>
    </edge>
    <edge id=":2283248931_0" function="internal">
        <lane id=":2283248931_0_0" index="0" disallow="tram rail_urban rail rail_electric rail_fast ship" speed="13.89" length="0.75" shape="984.61,1777.36 984.71,1777.42 984.77,1777.46 984.84,1777.49 984.95,1777.53"/>
        <lane id=":2283248931_0_1" index="1" disallow="tram rail_urban rail rail_electric rail_fast ship" speed="13.89" length="0.75" shape="982.88,1780.05 983.16,1780.23 983.36,1780.34 983.57,1780.43 983.88,1780.54"/>
    </edge>
    <edge id=":244518245_0" function="internal">
        <lane id=":244518245_0_0" index="0" disallow="tram rail_urban rail rail_electric rail_fast ship" speed="12.50" length="8.32" shape="1066.15,1786.84 1067.91,1788.60 1069.10,1789.88 1070.47,1790.85 1072.73,1791.70"/>
    </edge>
    <edge id=":244518245_1" function="internal">
        <lane id=":244518245_1_0" index="0" disallow="tram rail_urban rail rail_electric rail_fast ship" speed="11.11" length="8.32" shape="1064.52,1790.46 1066.98,1790.69 1068.68,1790.82 1070.34,1791.08 1072.73,1791.70"/>
    </edge>
    <edge id=":244518249_0" function="internal">
        <lane id=":244518249_0_0" index="0" disallow="pedestrian tram rail_urban rail rail_electric rail_fast ship" speed="13.89" length="16.90" shape="987.54,1778.45 992.25,1779.83 995.70,1779.99 999.12,1779.07 1003.76,1777.21"/>
        <lane id=":244518249_0_1" index="1" disallow="pedestrian tram rail_urban rail rail_electric rail_fast ship" speed="13.89" length="19.25" shape="986.47,1781.46 991.84,1783.06 995.77,1783.28 999.67,1782.28 1004.95,1780.18"/>
    </edge>
    <edge id=":244518249_2" function="internal">
        <lane id=":244518249_2_0" index="0" disallow="tram rail_urban rail rail_electric rail_fast ship" speed="13.89" length="13.53" shape="986.47,1781.46 990.54,1782.61 993.66,1782.99 996.53,1783.06 999.82,1783.29"/>
    </edge>
    <edge id=":244518249_3" function="internal">
        <lane id=":244518249_3_0" index="0" allow="tram" speed="13.89" length="19.23" shape="986.46,1785.48 1004.95,1780.18"/>
    </edge>
    <edge id=":244529560_0" function="internal">
        <lane id=":244529560_0_0" index="0" disallow="tram rail_urban rail rail_electric rail_fast ship" speed="20.84" length="14.32" shape="964.47,1803.16 961.35,1805.29 960.20,1807.92 959.27,1810.92 956.83,1814.16"/>
        <lane id=":244529560_0_1" index="1" disallow="tram rail_urban rail rail_electric rail_fast ship" speed="20.84" length="14.32" shape="963.29,1800.18 959.89,1802.44 958.52,1805.18 957.39,1808.31 954.72,1811.76"/>
        <lane id=":244529560_0_2" index="2" disallow="tram rail_urban rail rail_electric rail_fast ship" speed="20.84" length="14.32" shape="963.29,1800.18 959.60,1802.05 957.47,1803.99 955.58,1806.32 952.60,1809.36"/>
    </edge>
    <edge id=":244529560_3" function="internal">
        <lane id=":244529560_3_0" index="0" disallow="tram rail_urban rail rail_electric rail_fast ship" speed="17.97" length="15.45" shape="960.67,1796.90 959.58,1801.70 959.05,1805.21 957.84,1808.28 954.72,1811.76"/>
        <lane id=":244529560_3_1" index="1" disallow="tram rail_urban rail rail_electric rail_fast ship" speed="17.69" length="15.45" shape="957.96,1794.83 956.97,1799.50 956.59,1802.95 955.56,1805.97 952.60,1809.36"/>
        <lane id=":244529560_3_2" index="2" disallow="tram rail_urban rail rail_electric rail_fast ship" speed="17.41" length="15.45" shape="955.25,1792.76 954.36,1797.30 954.14,1800.69 953.28,1803.66 950.48,1806.96"/>
        <lane id=":244529560_3_3" index="3" disallow="tram rail_urban rail rail_electric rail_fast ship" speed="16.58" length="15.45" shape="955.25,1792.76 954.04,1796.72 952.97,1799.41 951.32,1801.73 948.37,1804.56"/>
    </edge>
    <edge id=":244530001_0" function="internal">
        <lane id=":244530001_0_0" index="0" disallow="tram rail_urban rail rail_electric rail_fast ship" speed="27.78" length="7.39" shape="956.56,1760.07 958.85,1761.65 961.39,1761.54 963.79,1761.51 965.68,1763.32"/>
        <lane id=":244530001_0_1" index="1" disallow="tram rail_urban rail rail_electric rail_fast ship" speed="27.78" length="7.39" shape="956.56,1760.07 958.22,1761.64 959.88,1762.24 961.43,1762.90 962.77,1764.64"/>
        <lane id=":244530001_0_2" index="2" disallow="tram rail_urban rail rail_electric rail_fast ship" speed="27.78" length="7.39" shape="956.56,1760.07 957.68,1761.74 958.40,1762.91 959.02,1764.14 959.86,1765.97"/>
        <lane id=":244530001_0_3" index="3" disallow="tram rail_urban rail rail_electric rail_fast ship" speed="27.78" length="7.39" shape="953.92,1761.88 954.95,1763.41 955.61,1764.49 956.18,1765.62 956.95,1767.30"/>
        <lane id=":244530001_0_4" index="4" disallow="tram rail_urban rail rail_electric rail_fast ship" speed="27.78" length="7.39" shape="951.28,1763.69 952.22,1765.08 952.82,1766.07 953.33,1767.10 954.04,1768.62"/>
    </edge>
    <edge id=":2615814488_0" function="internal">
        <lane id=":2615814488_0_0" index="0" allow="delivery bicycle" speed="6.38" length="6.86" shape="1014.16,1767.21 1015.77,1769.10 1017.20,1770.34 1018.47,1770.92 1019.56,1770.84"/>
    </edge>
    <edge id=":2615814488_1" function="internal">
        <lane id=":2615814488_1_0" index="0" allow="pedestrian delivery bicycle" speed="3.68" length="4.77" shape="1014.16,1767.21 1013.96,1768.67 1013.41,1769.39 1012.49,1769.38 1011.22,1768.64"/>
    </edge>
    <edge id=":2615814488_2" function="internal">
        <lane id=":2615814488_2_0" index="0" allow="delivery bicycle" speed="5.40" length="7.10" shape="1010.62,1774.44 1012.10,1773.50 1012.70,1772.21 1012.40,1770.60 1011.22,1768.64"/>
    </edge>
    <edge id=":2615814488_3" function="internal">
        <lane id=":2615814488_3_0" index="0" disallow="pedestrian rail_urban rail rail_electric rail_fast ship" speed="13.89" length="9.64" shape="1010.62,1774.44 1019.56,1770.84"/>
        <lane id=":2615814488_3_1" index="1" disallow="pedestrian rail_urban rail rail_electric rail_fast ship" speed="13.89" length="9.64" shape="1011.82,1777.41 1020.76,1773.81"/>
    </edge>
    <edge id=":2621086843_0" function="internal">
        <lane id=":2621086843_0_0" index="0" disallow="tram rail_urban rail rail_electric rail_fast ship" speed="8.29" length="7.68" shape="1067.68,1758.92 1066.35,1759.87 1065.27,1761.25 1064.45,1763.06 1063.87,1765.29"/>
    </edge>
    <edge id=":2621086843_1" function="internal">
        <lane id=":2621086843_1_0" index="0" disallow="tram rail_urban rail rail_electric rail_fast ship" speed="13.89" length="8.27" shape="1067.68,1758.92 1060.19,1762.41"/>
    </edge>
    <edge id=":2621086843_2" function="internal">
        <lane id=":2621086843_2_0" index="0" disallow="tram rail_urban rail rail_electric rail_fast ship" speed="3.65" length="2.34" shape="1067.68,1758.92 1066.25,1758.75 1065.53,1758.21"/>
    </edge>
    <edge id=":2621086843_6" function="internal">
        <lane id=":2621086843_6_0" index="0" disallow="tram rail_urban rail rail_electric rail_fast ship" speed="3.65" length="2.34" shape="1065.53,1758.21 1065.53,1757.32 1066.23,1756.06"/>
    </edge>
    <edge id=":2621086843_3" function="internal">
        <lane id=":2621086843_3_0" index="0" disallow="tram rail_urban rail rail_electric rail_fast ship" speed="13.89" length="8.12" shape="1058.87,1759.49 1066.23,1756.06"/>
    </edge>
    <edge id=":2621086843_4" function="internal">
        <lane id=":2621086843_4_0" index="0" disallow="tram rail_urban rail rail_electric rail_fast ship" speed="5.94" length="4.41" shape="1058.87,1759.49 1061.66,1758.73 1063.07,1759.30"/>
    </edge>
    <edge id=":2621086843_5" function="internal">
        <lane id=":2621086843_5_0" index="0" disallow="tram rail_urban rail rail_electric rail_fast ship" speed="3.65" length="2.34" shape="1058.87,1759.49 1060.30,1759.73 1060.99,1760.29"/>
    </edge>
    <edge id=":2621086843_7" function="internal">
        <lane id=":2621086843_7_0" index="0" disallow="tram rail_urban rail rail_electric rail_fast ship" speed="5.94" length="6.36" shape="1063.07,1759.30 1063.43,1759.45 1064.16,1761.63 1063.87,1765.29"/>
    </edge>
    <edge id=":2621086843_8" function="internal">
        <lane id=":2621086843_8_0" index="0" disallow="tram rail_urban rail rail_electric rail_fast ship" speed="3.65" length="2.34" shape="1060.99,1760.29 1060.96,1761.18 1060.19,1762.41"/>
    </edge>
    <edge id=":2621097691_0" function="internal">
        <lane id=":2621097691_0_0" index="0" disallow="tram rail_urban rail rail_electric rail_fast ship" speed="3.60" length="4.48" shape="871.66,1722.40 871.68,1721.02 872.12,1720.28 872.97,1720.19 874.24,1720.75"/>
    </edge>
    <edge id=":276504310_0" function="internal">
        <lane id=":276504310_0_0" index="0" disallow="tram rail_urban rail rail_electric rail_fast ship" speed="7.10" length="2.82" shape="894.52,1812.64 893.90,1812.08 893.48,1811.66 893.19,1811.17 892.97,1810.38"/>
    </edge>
    <edge id=":276504310_1" function="internal">
        <lane id=":276504310_1_0" index="0" disallow="tram rail_urban rail rail_electric rail_fast ship" speed="27.78" length="3.69" shape="896.72,1810.32 895.83,1809.46 895.24,1808.86 894.69,1808.22 893.93,1807.25"/>
        <lane id=":276504310_1_1" index="1" disallow="tram rail_urban rail rail_electric rail_fast ship" speed="27.78" length="3.69" shape="898.93,1807.99 898.13,1807.24 897.61,1806.70 897.12,1806.13 896.44,1805.27"/>
        <lane id=":276504310_1_2" index="2" disallow="tram rail_urban rail rail_electric rail_fast ship" speed="27.78" length="3.69" shape="901.13,1805.67 900.44,1805.01 899.98,1804.54 899.55,1804.04 898.96,1803.29"/>
    </edge>
    <edge id=":276511443_0" function="internal">
        <lane id=":276511443_0_0" index="0" disallow="tram rail_urban rail rail_electric rail_fast ship" speed="7.48" length="7.84" shape="934.29,1821.92 949.46,1823.54"/>
        <lane id=":276511443_0_1" index="1" disallow="tram rail_urban rail rail_electric rail_fast ship" speed="13.89" length="7.84" shape="943.50,1822.53 944.14,1823.47 944.97,1823.83 945.84,1824.17 946.64,1825.05"/>
        <lane id=":276511443_0_2" index="2" disallow="tram rail_urban rail rail_electric rail_fast ship" speed="13.89" length="7.84" shape="943.50,1822.53 943.70,1823.71 943.56,1824.58 943.46,1825.44 943.81,1826.55"/>
    </edge>
    <edge id=":2921725132_0" function="internal">
        <lane id=":2921725132_0_0" index="0" disallow="tram rail_urban rail rail_electric rail_fast ship" speed="16.67" length="5.03" shape="877.54,1852.98 881.72,1850.21"/>
        <lane id=":2921725132_0_1" index="1" disallow="tram rail_urban rail rail_electric rail_fast ship" speed="16.67" length="5.03" shape="879.30,1855.65 883.50,1852.87"/>
    </edge>
    <edge id=":3079800305_0" function="internal">
        <lane id=":3079800305_0_0" index="0" disallow="tram rail_urban rail rail_electric rail_fast ship" speed="8.57" length="3.87" shape="966.04,1764.11 966.54,1765.13 966.98,1765.80 967.57,1766.33 968.51,1766.97"/>
        <lane id=":3079800305_0_1" index="1" disallow="tram rail_urban rail rail_electric rail_fast ship" speed="10.31" length="5.71" shape="963.13,1765.43 963.86,1766.95 964.51,1767.93 965.38,1768.71 966.78,1769.65"/>
    </edge>
    <edge id=":3079800305_2" function="internal">
        <lane id=":3079800305_2_0" index="0" disallow="tram rail_urban rail rail_electric rail_fast ship" speed="27.78" length="4.38" shape="960.22,1766.76 960.83,1768.10 961.22,1769.03 961.52,1769.99 961.90,1771.41"/>
        <lane id=":3079800305_2_1" index="1" disallow="tram rail_urban rail rail_electric rail_fast ship" speed="27.78" length="4.38" shape="957.31,1768.09 957.85,1769.27 958.19,1770.09 958.46,1770.94 958.79,1772.19"/>
        <lane id=":3079800305_2_2" index="2" disallow="tram rail_urban rail rail_electric rail_fast ship" speed="27.78" length="4.38" shape="954.39,1769.41 954.86,1770.44 955.16,1771.15 955.40,1771.88 955.69,1772.97"/>
    </edge>
    <edge id=":3079800311_0" function="internal">
        <lane id=":3079800311_0_0" index="0" disallow="tram rail_urban rail rail_electric rail_fast ship" speed="27.78" length="10.40" shape="953.37,1817.21 950.81,1818.13 948.53,1817.08 946.16,1815.90 943.29,1816.40"/>
        <lane id=":3079800311_0_1" index="1" disallow="tram rail_urban rail rail_electric rail_fast ship" speed="27.78" length="10.40" shape="951.26,1814.81 948.81,1815.63 946.64,1814.50 944.38,1813.23 941.64,1813.65"/>
        <lane id=":3079800311_0_2" index="2" disallow="tram rail_urban rail rail_electric rail_fast ship" speed="27.78" length="10.40" shape="949.14,1812.41 946.80,1813.13 944.75,1811.92 942.61,1810.57 939.99,1810.91"/>
    </edge>
    <edge id=":3079800311_3" function="internal">
        <lane id=":3079800311_3_0" index="0" disallow="tram rail_urban rail rail_electric rail_fast ship" speed="8.44" length="11.01" shape="949.14,1812.41 945.96,1815.00 943.32,1816.67 941.23,1817.43 939.67,1817.27"/>
        <lane id=":3079800311_3_1" index="1" disallow="tram rail_urban rail rail_electric rail_fast ship" speed="7.05" length="7.48" shape="947.02,1810.01 945.90,1811.03 944.10,1812.61 942.26,1813.98 941.05,1814.38"/>
        <lane id=":3079800311_3_2" index="2" disallow="tram rail_urban rail rail_electric rail_fast ship" speed="5.69" length="4.61" shape="944.91,1807.61 942.43,1811.50"/>
    </edge>
    <edge id=":3098679512_0" function="internal">
        <lane id=":3098679512_0_0" index="0" disallow="tram rail_urban rail rail_electric rail_fast ship" speed="13.89" length="7.02" shape="980.60,1883.29 981.69,1885.18 982.74,1886.31 983.73,1887.47 984.64,1889.42"/>
        <lane id=":3098679512_0_1" index="1" disallow="tram rail_urban rail rail_electric rail_fast ship" speed="13.89" length="7.02" shape="977.67,1884.56 978.72,1886.37 979.75,1887.45 980.72,1888.54 981.60,1890.42"/>
        <lane id=":3098679512_0_2" index="2" disallow="tram rail_urban rail rail_electric rail_fast ship" speed="13.89" length="7.02" shape="974.73,1885.83 975.75,1887.56 976.75,1888.58 977.71,1889.62 978.56,1891.42"/>
        <lane id=":3098679512_0_3" index="3" disallow="tram rail_urban rail rail_electric rail_fast ship" speed="13.89" length="7.02" shape="974.73,1885.83 975.26,1887.70 975.23,1889.08 975.15,1890.48 975.52,1892.41"/>
    </edge>
    <edge id=":3098686102_0" function="internal">
        <lane id=":3098686102_0_0" index="0" disallow="tram rail_urban rail rail_electric rail_fast ship" speed="27.78" length="6.41" shape="923.45,1743.05 925.51,1743.04 926.92,1743.08 928.32,1743.23 930.35,1743.53"/>
        <lane id=":3098686102_0_1" index="1" disallow="tram rail_urban rail rail_electric rail_fast ship" speed="27.78" length="6.41" shape="923.48,1746.25 925.38,1746.24 926.68,1746.28 927.98,1746.41 929.86,1746.69"/>
        <lane id=":3098686102_0_2" index="2" disallow="tram rail_urban rail rail_electric rail_fast ship" speed="27.78" length="6.41" shape="923.51,1749.45 925.25,1749.44 926.45,1749.47 927.64,1749.60 929.37,1749.86"/>
    </edge>
    <edge id=":3098726446_0" function="internal">
        <lane id=":3098726446_0_0" index="0" disallow="tram rail_urban rail rail_electric rail_fast ship" speed="9.66" length="5.71" shape="939.49,1817.18 944.34,1820.20"/>
        <lane id=":3098726446_0_1" index="1" disallow="tram rail_urban rail rail_electric rail_fast ship" speed="5.19" length="8.60" shape="940.87,1814.30 940.85,1815.25 941.71,1817.85 942.79,1820.70 943.47,1822.43"/>
    </edge>
    <edge id=":3098726446_2" function="internal">
        <lane id=":3098726446_2_0" index="0" disallow="tram rail_urban rail rail_electric rail_fast ship" speed="7.00" length="13.79" shape="942.25,1811.41 941.13,1811.77 940.23,1814.01 939.53,1818.13 939.05,1824.13"/>
    </edge>
    <edge id=":31202499_0" function="internal">
        <lane id=":31202499_0_0" index="0" disallow="tram rail_urban rail rail_electric rail_fast ship" speed="20.84" length="16.87" shape="913.03,1827.72 909.82,1824.22 907.31,1822.14 904.55,1820.32 900.61,1817.59"/>
        <lane id=":31202499_0_1" index="1" disallow="tram rail_urban rail rail_electric rail_fast ship" speed="20.84" length="16.87" shape="915.48,1825.67 912.13,1821.99 909.51,1819.80 906.63,1817.88 902.51,1815.02"/>
        <lane id=":31202499_0_2" index="2" disallow="tram rail_urban rail rail_electric rail_fast ship" speed="20.84" length="16.87" shape="917.93,1823.61 914.44,1819.77 911.71,1817.46 908.71,1815.44 904.41,1812.44"/>
    </edge>
    <edge id=":31202499_3" function="internal">
        <lane id=":31202499_3_0" index="0" disallow="tram rail_urban rail rail_electric rail_fast ship" speed="16.42" length="22.71" shape="923.98,1821.21 917.21,1821.68 912.45,1821.05 908.10,1818.95 902.51,1815.02"/>
        <lane id=":31202499_3_1" index="1" disallow="tram rail_urban rail rail_electric rail_fast ship" speed="16.23" length="22.71" shape="925.55,1817.82 918.91,1818.39 914.20,1818.00 909.89,1816.18 904.41,1812.44"/>
        <lane id=":31202499_3_2" index="2" disallow="tram rail_urban rail rail_electric rail_fast ship" speed="16.04" length="22.71" shape="927.11,1814.43 920.60,1815.09 915.95,1814.95 911.69,1813.41 906.31,1809.87"/>
    </edge>
    <edge id=":659658602_0" function="internal">
        <lane id=":659658602_0_0" index="0" allow="pedestrian delivery bicycle" speed="3.65" length="4.67" shape="1015.01,1727.07 1016.39,1726.65 1017.26,1726.85 1017.63,1727.67 1017.48,1729.11"/>
    </edge>
    <edge id=":6789865060_0" function="internal">
        <lane id=":6789865060_0_0" index="0" disallow="tram rail_urban rail rail_electric rail_fast ship" speed="3.65" length="4.67" shape="1084.79,1746.89 1086.20,1747.18 1086.87,1747.78 1086.80,1748.67 1085.98,1749.86"/>
    </edge>
    <edge id=":8500383759_0" function="internal">
        <lane id=":8500383759_0_0" index="0" allow="pedestrian delivery bicycle" speed="5.56" length="7.81" shape="854.04,1859.04 852.88,1856.52 852.45,1854.51 852.76,1853.01 853.80,1852.01"/>
    </edge>
    <edge id=":8500383759_1" function="internal">
        <lane id=":8500383759_1_0" index="0" allow="pedestrian delivery bicycle" speed="3.65" length="4.67" shape="855.30,1854.84 853.86,1854.69 853.13,1854.17 853.11,1853.28 853.80,1852.01"/>
    </edge>
    <edge id=":8500383760_0" function="internal">
        <lane id=":8500383760_0_0" index="0" allow="pedestrian delivery bicycle" speed="3.65" length="4.67" shape="870.75,1843.08 872.18,1843.23 872.91,1843.75 872.93,1844.64 872.24,1845.91"/>
    </edge>
    <edge id=":880269336_0" function="internal">
        <lane id=":880269336_0_0" index="0" disallow="tram rail_urban rail rail_electric rail_fast ship" speed="6.85" length="8.73" shape="983.77,1875.83 981.71,1877.53 980.48,1879.30 980.08,1881.16 980.52,1883.10"/>
    </edge>
    <edge id=":880269336_1" function="internal">
        <lane id=":880269336_1_0" index="0" disallow="tram rail_urban rail rail_electric rail_fast ship" speed="12.50" length="14.59" shape="982.00,1873.17 978.53,1875.78 976.38,1877.87 974.19,1879.90 970.63,1882.37"/>
        <lane id=":880269336_1_1" index="1" disallow="tram rail_urban rail rail_electric rail_fast ship" speed="12.50" length="14.59" shape="980.22,1870.51 976.79,1873.10 974.66,1875.17 972.49,1877.19 968.97,1879.63"/>
    </edge>
    <edge id=":880269336_3" function="internal">
        <lane id=":880269336_3_0" index="0" disallow="tram rail_urban rail rail_electric rail_fast ship" speed="13.89" length="15.62" shape="973.58,1868.83 980.52,1883.10"/>
        <lane id=":880269336_3_1" index="1" disallow="tram rail_urban rail rail_electric rail_fast ship" speed="13.89" length="15.62" shape="970.75,1870.33 977.59,1884.38"/>
        <lane id=":880269336_3_2" index="2" disallow="tram rail_urban rail rail_electric rail_fast ship" speed="13.89" length="15.62" shape="967.93,1871.84 974.65,1885.65"/>
    </edge>
    <edge id=":880271381_0" function="internal">
        <lane id=":880271381_0_0" index="0" disallow="tram rail_urban rail rail_electric rail_fast ship" speed="12.50" length="2.05" shape="1019.04,1785.31 1017.00,1785.13"/>
    </edge>
    <edge id=":cluster_2824106046_3079800318_3098726457_0" function="internal">
        <lane id=":cluster_2824106046_3079800318_3098726457_0_0" index="0" allow="tram" speed="13.89" length="35.80" shape="880.61,1733.90 899.17,1764.51"/>
    </edge>
    <edge id=":cluster_2824106046_3079800318_3098726457_1" function="internal">
        <lane id=":cluster_2824106046_3079800318_3098726457_1_0" index="0" disallow="tram rail_urban rail rail_electric rail_fast ship" speed="14.66" length="6.19" shape="887.43,1767.99 887.93,1766.42 888.23,1765.32 888.31,1764.20 888.20,1762.58"/>
        <lane id=":cluster_2824106046_3079800318_3098726457_1_1" index="1" disallow="tram rail_urban rail rail_electric rail_fast ship" speed="16.26" length="6.19" shape="890.49,1768.93 891.10,1766.99 891.44,1765.63 891.53,1764.24 891.38,1762.23"/>
    </edge>
    <edge id=":cluster_2824106046_3079800318_3098726457_3" function="internal">